<routes>
	<vType id="vtypeauto" accel="2.5" decel="6.0" sigma="0.5" length="4" minGap="0" maxSpeed="41" color="137,164,204" probability="1" >
		<carFollowing-CC tau="0.5" omegaN="1" xi="2" c1="0.5" decel="6" lambda="0.5" lanesCount="1" ccAccel="1.5"/>
	</vType>

	<route id="platoon_route_1" edges="edge_0_8 edge_0_9 edge_0_0 edge_0_1 edge_0_2 edge_0_3 edge_0_4 -edge_0_4 -edge_0_3 -edge_0_2 -edge_0_1 -edge_0_0 -edge_0_9 -edge_0_8 gneE48 gneE49 gneE50 gneE47 edge_0_8 edge_0_9 edge_0_0 edge_0_1 edge_0_2 edge_0_3 edge_0_4 -edge_0_4 -edge_0_3 -edge_0_2 -edge_0_1 -edge_0_0 -edge_0_9 -edge_0_8 gneE48 gneE49 gneE50 gneE47 edge_0_8 edge_0_9 edge_0_0 edge_0_1 edge_0_2 edge_0_3 edge_0_4 -edge_0_4 -edge_0_3 -edge_0_2 -edge_0_1 -edge_0_0 -edge_0_9 -edge_0_8 gneE48 gneE49 gneE50 gneE47 edge_0_8 edge_0_9 edge_0_0 edge_0_1 edge_0_2 edge_0_3 edge_0_4 -edge_0_4 -edge_0_3 -edge_0_2 -edge_0_1 -edge_0_0 -edge_0_9 -edge_0_8 gneE48 gneE49 gneE50 gneE47 edge_0_8 edge_0_9 edge_0_0 edge_0_1 edge_0_2 edge_0_3 edge_0_4 -edge_0_4 -edge_0_3 -edge_0_2 -edge_0_1 -edge_0_0 -edge_0_9 -edge_0_8 gneE48 gneE49 gneE50 gneE47 "/>
	<route id="platoon_route_2" edges="edge_0_0 edge_0_1 edge_0_2 edge_0_3 edge_0_4 -edge_0_4 -edge_0_3 -edge_0_2 -edge_0_1 -edge_0_0 -edge_0_9 -edge_0_8 gneE48 gneE49 gneE50 gneE47 edge_0_8 edge_0_9 edge_0_0 edge_0_1 edge_0_2 edge_0_3 edge_0_4 -edge_0_4 -edge_0_3 -edge_0_2 -edge_0_1 -edge_0_0 -edge_0_9 -edge_0_8 gneE48 gneE49 gneE50 gneE47 edge_0_8 edge_0_9 edge_0_0 edge_0_1 edge_0_2 edge_0_3 edge_0_4 -edge_0_4 -edge_0_3 -edge_0_2 -edge_0_1 -edge_0_0 -edge_0_9 -edge_0_8 gneE48 gneE49 gneE50 gneE47 edge_0_8 edge_0_9 edge_0_0 edge_0_1 edge_0_2 edge_0_3 edge_0_4 -edge_0_4 -edge_0_3 -edge_0_2 -edge_0_1 -edge_0_0 -edge_0_9 -edge_0_8 gneE48 gneE49 gneE50 gneE47 edge_0_8 edge_0_9 edge_0_0 edge_0_1 edge_0_2 edge_0_3 edge_0_4 -edge_0_4 -edge_0_3 -edge_0_2 -edge_0_1 -edge_0_0 -edge_0_9 -edge_0_8 gneE48 gneE49 gneE50 gneE47 "/>
	<route id="platoon_route_3" edges="edge_0_1 edge_0_2 edge_0_3 edge_0_4 -edge_0_4 -edge_0_3 -edge_0_2 -edge_0_1 -edge_0_0 -edge_0_9 -edge_0_8 gneE48 gneE49 gneE50 gneE47 edge_0_8 edge_0_9 edge_0_0 edge_0_1 edge_0_2 edge_0_3 edge_0_4 -edge_0_4 -edge_0_3 -edge_0_2 -edge_0_1 -edge_0_0 -edge_0_9 -edge_0_8 gneE48 gneE49 gneE50 gneE47 edge_0_8 edge_0_9 edge_0_0 edge_0_1 edge_0_2 edge_0_3 edge_0_4 -edge_0_4 -edge_0_3 -edge_0_2 -edge_0_1 -edge_0_0 -edge_0_9 -edge_0_8 gneE48 gneE49 gneE50 gneE47 edge_0_8 edge_0_9 edge_0_0 edge_0_1 edge_0_2 edge_0_3 edge_0_4 -edge_0_4 -edge_0_3 -edge_0_2 -edge_0_1 -edge_0_0 -edge_0_9 -edge_0_8 gneE48 gneE49 gneE50 gneE47 edge_0_8 edge_0_9 edge_0_0 edge_0_1 edge_0_2 edge_0_3 edge_0_4 -edge_0_4 -edge_0_3 -edge_0_2 -edge_0_1 -edge_0_0 -edge_0_9 -edge_0_8 gneE48 gneE49 gneE50 gneE47 "/>

	<route id="platoon_route_4" edges="edge_0_2 edge_0_3 edge_0_4 -edge_0_4 -edge_0_3 -edge_0_2 -edge_0_1 -edge_0_0 -edge_0_9 -edge_0_8 gneE48 gneE49 gneE50 gneE47 edge_0_8 edge_0_9 edge_0_0 edge_0_1 edge_0_2 edge_0_3 edge_0_4 -edge_0_4 -edge_0_3 -edge_0_2 -edge_0_1 -edge_0_0 -edge_0_9 -edge_0_8 gneE48 gneE49 gneE50 gneE47 edge_0_8 edge_0_9 edge_0_0 edge_0_1 edge_0_2 edge_0_3 edge_0_4 -edge_0_4 -edge_0_3 -edge_0_2 -edge_0_1 -edge_0_0 -edge_0_9 -edge_0_8 gneE48 gneE49 gneE50 gneE47 edge_0_8 edge_0_9 edge_0_0 edge_0_1 edge_0_2 edge_0_3 edge_0_4 -edge_0_4 -edge_0_3 -edge_0_2 -edge_0_1 -edge_0_0 -edge_0_9 -edge_0_8 gneE48 gneE49 gneE50 gneE47 edge_0_8 edge_0_9 edge_0_0 edge_0_1 edge_0_2 edge_0_3 edge_0_4 -edge_0_4 -edge_0_3 -edge_0_2 -edge_0_1 -edge_0_0 -edge_0_9 -edge_0_8 gneE48 gneE49 gneE50 gneE47 edge_0_8 edge_0_9 edge_0_0 "/>
	<route id="platoon_route_5" edges="edge_0_3 edge_0_4 -edge_0_4 -edge_0_3 -edge_0_2 -edge_0_1 -edge_0_0 -edge_0_9 -edge_0_8 gneE48 gneE49 gneE50 gneE47 edge_0_8 edge_0_9 edge_0_0 edge_0_1 edge_0_2 edge_0_3 edge_0_4 -edge_0_4 -edge_0_3 -edge_0_2 -edge_0_1 -edge_0_0 -edge_0_9 -edge_0_8 gneE48 gneE49 gneE50 gneE47 edge_0_8 edge_0_9 edge_0_0 edge_0_1 edge_0_2 edge_0_3 edge_0_4 -edge_0_4 -edge_0_3 -edge_0_2 -edge_0_1 -edge_0_0 -edge_0_9 -edge_0_8 gneE48 gneE49 gneE50 gneE47 edge_0_8 edge_0_9 edge_0_0 edge_0_1 edge_0_2 edge_0_3 edge_0_4 -edge_0_4 -edge_0_3 -edge_0_2 -edge_0_1 -edge_0_0 -edge_0_9 -edge_0_8 gneE48 gneE49 gneE50 gneE47 edge_0_8 edge_0_9 edge_0_0 edge_0_1 edge_0_2 edge_0_3 edge_0_4 -edge_0_4 -edge_0_3 -edge_0_2 -edge_0_1 -edge_0_0 -edge_0_9 -edge_0_8 gneE48 gneE49 gneE50 gneE47 edge_0_8 edge_0_9 edge_0_0 edge_0_1 edge_0_2 "/>
	<route id="platoon_route_6" edges="edge_0_4 -edge_0_4 -edge_0_3 -edge_0_2 -edge_0_1 -edge_0_0 -edge_0_9 -edge_0_8 gneE48 gneE49 gneE50 gneE47 edge_0_8 edge_0_9 edge_0_0 edge_0_1 edge_0_2 edge_0_3 edge_0_4 -edge_0_4 -edge_0_3 -edge_0_2 -edge_0_1 -edge_0_0 -edge_0_9 -edge_0_8 gneE48 gneE49 gneE50 gneE47 edge_0_8 edge_0_9 edge_0_0 edge_0_1 edge_0_2 edge_0_3 edge_0_4 -edge_0_4 -edge_0_3 -edge_0_2 -edge_0_1 -edge_0_0 -edge_0_9 -edge_0_8 gneE48 gneE49 gneE50 gneE47 edge_0_8 edge_0_9 edge_0_0 edge_0_1 edge_0_2 edge_0_3 edge_0_4 -edge_0_4 -edge_0_3 -edge_0_2 -edge_0_1 -edge_0_0 -edge_0_9 -edge_0_8 gneE48 gneE49 gneE50 gneE47 edge_0_8 edge_0_9 edge_0_0 edge_0_1 edge_0_2 edge_0_3 edge_0_4 -edge_0_4 -edge_0_3 -edge_0_2 -edge_0_1 -edge_0_0 -edge_0_9 -edge_0_8 gneE48 gneE49 gneE50 gneE47 edge_0_8 edge_0_9 edge_0_0 edge_0_1 edge_0_2 edge_0_3 edge_0_4"/>

	<route id="platoon_route_7" edges="-edge_0_4 -edge_0_3 -edge_0_2 -edge_0_1 -edge_0_0 -edge_0_9 -edge_0_8 gneE48 gneE49 gneE50 gneE47 edge_0_8 edge_0_9 edge_0_0 edge_0_1 edge_0_2 edge_0_3 edge_0_4 -edge_0_4 -edge_0_3 -edge_0_2 -edge_0_1 -edge_0_0 -edge_0_9 -edge_0_8 gneE48 gneE49 gneE50 gneE47 edge_0_8 edge_0_9 edge_0_0 edge_0_1 edge_0_2 edge_0_3 edge_0_4 -edge_0_4 -edge_0_3 -edge_0_2 -edge_0_1 -edge_0_0 -edge_0_9 -edge_0_8 gneE48 gneE49 gneE50 gneE47 edge_0_8 edge_0_9 edge_0_0 edge_0_1 edge_0_2 edge_0_3 edge_0_4 -edge_0_4 -edge_0_3 -edge_0_2 -edge_0_1 -edge_0_0 -edge_0_9 -edge_0_8 gneE48 gneE49 gneE50 gneE47 edge_0_8 edge_0_9 edge_0_0 edge_0_1 edge_0_2 edge_0_3 edge_0_4 -edge_0_4 -edge_0_3 -edge_0_2 -edge_0_1 -edge_0_0 -edge_0_9 -edge_0_8 gneE48 gneE49 gneE50 gneE47 edge_0_8 edge_0_9 edge_0_0 edge_0_1 edge_0_2 edge_0_3 edge_0_4"/>
	<route id="platoon_route_8" edges="-edge_0_3 -edge_0_2 -edge_0_1 -edge_0_0 -edge_0_9 -edge_0_8 gneE48 gneE49 gneE50 gneE47 edge_0_8 edge_0_9 edge_0_0 edge_0_1 edge_0_2 edge_0_3 edge_0_4 -edge_0_4 -edge_0_3 -edge_0_2 -edge_0_1 -edge_0_0 -edge_0_9 -edge_0_8 gneE48 gneE49 gneE50 gneE47 edge_0_8 edge_0_9 edge_0_0 edge_0_1 edge_0_2 edge_0_3 edge_0_4 -edge_0_4 -edge_0_3 -edge_0_2 -edge_0_1 -edge_0_0 -edge_0_9 -edge_0_8 gneE48 gneE49 gneE50 gneE47 edge_0_8 edge_0_9 edge_0_0 edge_0_1 edge_0_2 edge_0_3 edge_0_4 -edge_0_4 -edge_0_3 -edge_0_2 -edge_0_1 -edge_0_0 -edge_0_9 -edge_0_8 gneE48 gneE49 gneE50 gneE47 edge_0_8 edge_0_9 edge_0_0 edge_0_1 edge_0_2 edge_0_3 edge_0_4 -edge_0_4 -edge_0_3 -edge_0_2 -edge_0_1 -edge_0_0 -edge_0_9 -edge_0_8 gneE48 gneE49 gneE50 gneE47 edge_0_8 edge_0_9 edge_0_0 edge_0_1 edge_0_2 edge_0_3 edge_0_4"/>
	<route id="platoon_route_9" edges="-edge_0_2 -edge_0_1 -edge_0_0 -edge_0_9 -edge_0_8 gneE48 gneE49 gneE50 gneE47 edge_0_8 edge_0_9 edge_0_0 edge_0_1 edge_0_2 edge_0_3 edge_0_4 -edge_0_4 -edge_0_3 -edge_0_2 -edge_0_1 -edge_0_0 -edge_0_9 -edge_0_8 gneE48 gneE49 gneE50 gneE47 edge_0_8 edge_0_9 edge_0_0 edge_0_1 edge_0_2 edge_0_3 edge_0_4 -edge_0_4 -edge_0_3 -edge_0_2 -edge_0_1 -edge_0_0 -edge_0_9 -edge_0_8 gneE48 gneE49 gneE50 gneE47 edge_0_8 edge_0_9 edge_0_0 edge_0_1 edge_0_2 edge_0_3 edge_0_4 -edge_0_4 -edge_0_3 -edge_0_2 -edge_0_1 -edge_0_0 -edge_0_9 -edge_0_8 gneE48 gneE49 gneE50 gneE47 edge_0_8 edge_0_9 edge_0_0 edge_0_1 edge_0_2 edge_0_3 edge_0_4 -edge_0_4 -edge_0_3 -edge_0_2 -edge_0_1 -edge_0_0 -edge_0_9 -edge_0_8 gneE48 gneE49 gneE50 gneE47 edge_0_8 edge_0_9 edge_0_0 edge_0_1 edge_0_2 edge_0_3 edge_0_4"/>

	<route id="platoon_route_10" edges="-edge_0_1 -edge_0_0 -edge_0_9 -edge_0_8 gneE48 gneE49 gneE50 gneE47 edge_0_8 edge_0_9 edge_0_0 edge_0_1 edge_0_2 edge_0_3 edge_0_4 -edge_0_4 -edge_0_3 -edge_0_2 -edge_0_1 -edge_0_0 -edge_0_9 -edge_0_8 gneE48 gneE49 gneE50 gneE47 edge_0_8 edge_0_9 edge_0_0 edge_0_1 edge_0_2 edge_0_3 edge_0_4 -edge_0_4 -edge_0_3 -edge_0_2 -edge_0_1 -edge_0_0 -edge_0_9 -edge_0_8 gneE48 gneE49 gneE50 gneE47 edge_0_8 edge_0_9 edge_0_0 edge_0_1 edge_0_2 edge_0_3 edge_0_4 -edge_0_4 -edge_0_3 -edge_0_2 -edge_0_1 -edge_0_0 -edge_0_9 -edge_0_8 gneE48 gneE49 gneE50 gneE47 edge_0_8 edge_0_9 edge_0_0 edge_0_1 edge_0_2 edge_0_3 edge_0_4 -edge_0_4 -edge_0_3 -edge_0_2 -edge_0_1 -edge_0_0 -edge_0_9 -edge_0_8 gneE48 gneE49 gneE50 gneE47 edge_0_8 edge_0_9 edge_0_0 edge_0_1 edge_0_2 edge_0_3 edge_0_4 -edge_0_4 -edge_0_3"/>
	<route id="platoon_route_11" edges="-edge_0_0 -edge_0_9 -edge_0_8 gneE48 gneE49 gneE50 gneE47 edge_0_8 edge_0_9 edge_0_0 edge_0_1 edge_0_2 edge_0_3 edge_0_4 -edge_0_4 -edge_0_3 -edge_0_2 -edge_0_1 -edge_0_0 -edge_0_9 -edge_0_8 gneE48 gneE49 gneE50 gneE47 edge_0_8 edge_0_9 edge_0_0 edge_0_1 edge_0_2 edge_0_3 edge_0_4 -edge_0_4 -edge_0_3 -edge_0_2 -edge_0_1 -edge_0_0 -edge_0_9 -edge_0_8 gneE48 gneE49 gneE50 gneE47 edge_0_8 edge_0_9 edge_0_0 edge_0_1 edge_0_2 edge_0_3 edge_0_4 -edge_0_4 -edge_0_3 -edge_0_2 -edge_0_1 -edge_0_0 -edge_0_9 -edge_0_8 gneE48 gneE49 gneE50 gneE47 edge_0_8 edge_0_9 edge_0_0 edge_0_1 edge_0_2 edge_0_3 edge_0_4 -edge_0_4 -edge_0_3 -edge_0_2 -edge_0_1 -edge_0_0 -edge_0_9 -edge_0_8 gneE48 gneE49 gneE50 gneE47 edge_0_8 edge_0_9 edge_0_0 edge_0_1 edge_0_2 edge_0_3 edge_0_4 -edge_0_4 -edge_0_3 -edge_0_2 -edge_0_1"/>
	<route id="platoon_route_12" edges="-edge_0_9 -edge_0_8 gneE48 gneE49 gneE50 gneE47 edge_0_8 edge_0_9 edge_0_0 edge_0_1 edge_0_2 edge_0_3 edge_0_4 -edge_0_4 -edge_0_3 -edge_0_2 -edge_0_1 -edge_0_0 -edge_0_9 -edge_0_8 gneE48 gneE49 gneE50 gneE47 edge_0_8 edge_0_9 edge_0_0 edge_0_1 edge_0_2 edge_0_3 edge_0_4 -edge_0_4 -edge_0_3 -edge_0_2 -edge_0_1 -edge_0_0 -edge_0_9 -edge_0_8 gneE48 gneE49 gneE50 gneE47 edge_0_8 edge_0_9 edge_0_0 edge_0_1 edge_0_2 edge_0_3 edge_0_4 -edge_0_4 -edge_0_3 -edge_0_2 -edge_0_1 -edge_0_0 -edge_0_9 -edge_0_8 gneE48 gneE49 gneE50 gneE47 edge_0_8 edge_0_9 edge_0_0 edge_0_1 edge_0_2 edge_0_3 edge_0_4 -edge_0_4 -edge_0_3 -edge_0_2 -edge_0_1 -edge_0_0 -edge_0_9 -edge_0_8 gneE48 gneE49 gneE50 gneE47 edge_0_8 edge_0_9 edge_0_0 edge_0_1 edge_0_2 edge_0_3 edge_0_4 -edge_0_4 -edge_0_3 -edge_0_2 -edge_0_1"/>


	<route id="platoon_route_13" edges="gneE4 gneE5 gneE6 gneE7 gneE8 gneE11 gneE47 gneE48 gneE49 gneE50 -gneE11 -gneE8 -gneE7 -gneE6 -gneE5 -gneE4 gneE4 gneE5 gneE6 gneE7 gneE8 gneE11 gneE47 gneE48 gneE49 gneE50 -gneE11 -gneE8 -gneE7 -gneE6 -gneE5 -gneE4 gneE4 gneE5 gneE6 gneE7 gneE8 gneE11 gneE47 gneE48 gneE49 gneE50 -gneE11 -gneE8 -gneE7 -gneE6 -gneE5 -gneE4 gneE4 gneE5 gneE6 gneE7 gneE8 gneE11 gneE47 gneE48 gneE49 gneE50 -gneE11 -gneE8 -gneE7 -gneE6 -gneE5 -gneE4 gneE4 gneE5 gneE6 gneE7 gneE8 gneE11 gneE47 gneE48 gneE49 gneE50 -gneE11 -gneE8 -gneE7 -gneE6 -gneE5 -gneE4 gneE4 gneE5 gneE6 gneE7 gneE8 gneE11 gneE47 gneE48 gneE49 gneE50 -gneE11 -gneE8 -gneE7 -gneE6 -gneE5 -gneE4 gneE4 gneE5 gneE6 gneE7 gneE8 gneE11 gneE47 gneE48 gneE49 "/>
	<route id="platoon_route_14" edges="gneE5 gneE6 gneE7 gneE8 gneE11 gneE47 gneE48 gneE49 gneE50 -gneE11 -gneE8 -gneE7 -gneE6 -gneE5 -gneE4 gneE4 gneE5 gneE6 gneE7 gneE8 gneE11 gneE47 gneE48 gneE49 gneE50 -gneE11 -gneE8 -gneE7 -gneE6 -gneE5 -gneE4 gneE4 gneE5 gneE6 gneE7 gneE8 gneE11 gneE47 gneE48 gneE49 gneE50 -gneE11 -gneE8 -gneE7 -gneE6 -gneE5 -gneE4 gneE4 gneE5 gneE6 gneE7 gneE8 gneE11 gneE47 gneE48 gneE49 gneE50 -gneE11 -gneE8 -gneE7 -gneE6 -gneE5 -gneE4 gneE4 gneE5 gneE6 gneE7 gneE8 gneE11 gneE47 gneE48 gneE49 gneE50 -gneE11 -gneE8 -gneE7 -gneE6 -gneE5 -gneE4 gneE4 gneE5 gneE6 gneE7 gneE8 gneE11 gneE47 gneE48 gneE49 gneE50 -gneE11 -gneE8 -gneE7 -gneE6 -gneE5 -gneE4 gneE4 gneE5 gneE6 gneE7 gneE8 gneE11 gneE47 gneE48 gneE49 "/>
	<route id="platoon_route_15" edges="gneE6 gneE7 gneE8 gneE11 gneE47 gneE48 gneE49 gneE50 -gneE11 -gneE8 -gneE7 -gneE6 -gneE5 -gneE4 gneE4 gneE5 gneE6 gneE7 gneE8 gneE11 gneE47 gneE48 gneE49 gneE50 -gneE11 -gneE8 -gneE7 -gneE6 -gneE5 -gneE4 gneE4 gneE5 gneE6 gneE7 gneE8 gneE11 gneE47 gneE48 gneE49 gneE50 -gneE11 -gneE8 -gneE7 -gneE6 -gneE5 -gneE4 gneE4 gneE5 gneE6 gneE7 gneE8 gneE11 gneE47 gneE48 gneE49 gneE50 -gneE11 -gneE8 -gneE7 -gneE6 -gneE5 -gneE4 gneE4 gneE5 gneE6 gneE7 gneE8 gneE11 gneE47 gneE48 gneE49 gneE50 -gneE11 -gneE8 -gneE7 -gneE6 -gneE5 -gneE4 gneE4 gneE5 gneE6 gneE7 gneE8 gneE11 gneE47 gneE48 gneE49 gneE50 -gneE11 -gneE8 -gneE7 -gneE6 -gneE5 -gneE4 gneE4 gneE5 gneE6 gneE7 gneE8 gneE11 gneE47 gneE48 gneE49 "/>

	<route id="platoon_route_16" edges="gneE7 gneE8 gneE11 gneE47 gneE48 gneE49 gneE50 -gneE11 -gneE8 -gneE7 -gneE6 -gneE5 -gneE4 gneE4 gneE5 gneE6 gneE7 gneE8 gneE11 gneE47 gneE48 gneE49 gneE50 -gneE11 -gneE8 -gneE7 -gneE6 -gneE5 -gneE4 gneE4 gneE5 gneE6 gneE7 gneE8 gneE11 gneE47 gneE48 gneE49 gneE50 -gneE11 -gneE8 -gneE7 -gneE6 -gneE5 -gneE4 gneE4 gneE5 gneE6 gneE7 gneE8 gneE11 gneE47 gneE48 gneE49 gneE50 -gneE11 -gneE8 -gneE7 -gneE6 -gneE5 -gneE4 gneE4 gneE5 gneE6 gneE7 gneE8 gneE11 gneE47 gneE48 gneE49 gneE50 -gneE11 -gneE8 -gneE7 -gneE6 -gneE5 -gneE4 gneE4 gneE5 gneE6 gneE7 gneE8 gneE11 gneE47 gneE48 gneE49 gneE50 -gneE11 -gneE8 -gneE7 -gneE6 -gneE5 -gneE4 gneE4 gneE5 gneE6 gneE7 gneE8 gneE11 gneE47 gneE48 gneE49 gneE50 -gneE11"/>
	<route id="platoon_route_17" edges="gneE8 gneE11 gneE47 gneE48 gneE49 gneE50 -gneE11 -gneE8 -gneE7 -gneE6 -gneE5 -gneE4 gneE4 gneE5 gneE6 gneE7 gneE8 gneE11 gneE47 gneE48 gneE49 gneE50 -gneE11 -gneE8 -gneE7 -gneE6 -gneE5 -gneE4 gneE4 gneE5 gneE6 gneE7 gneE8 gneE11 gneE47 gneE48 gneE49 gneE50 -gneE11 -gneE8 -gneE7 -gneE6 -gneE5 -gneE4 gneE4 gneE5 gneE6 gneE7 gneE8 gneE11 gneE47 gneE48 gneE49 gneE50 -gneE11 -gneE8 -gneE7 -gneE6 -gneE5 -gneE4 gneE4 gneE5 gneE6 gneE7 gneE8 gneE11 gneE47 gneE48 gneE49 gneE50 -gneE11 -gneE8 -gneE7 -gneE6 -gneE5 -gneE4 gneE4 gneE5 gneE6 gneE7 gneE8 gneE11 gneE47 gneE48 gneE49 gneE50 -gneE11 -gneE8 -gneE7 -gneE6 -gneE5 -gneE4 gneE4 gneE5 gneE6 gneE7 gneE8 gneE11 gneE47 gneE48 gneE49 gneE50 -gneE11 -gneE8 -gneE7"/> 
	<route id="platoon_route_18" edges="gneE11 gneE47 gneE48 gneE49 gneE50 -gneE11 -gneE8 -gneE7 -gneE6 -gneE5 -gneE4 gneE4 gneE5 gneE6 gneE7 gneE8 gneE11 gneE47 gneE48 gneE49 gneE50 -gneE11 -gneE8 -gneE7 -gneE6 -gneE5 -gneE4 gneE4 gneE5 gneE6 gneE7 gneE8 gneE11 gneE47 gneE48 gneE49 gneE50 -gneE11 -gneE8 -gneE7 -gneE6 -gneE5 -gneE4 gneE4 gneE5 gneE6 gneE7 gneE8 gneE11 gneE47 gneE48 gneE49 gneE50 -gneE11 -gneE8 -gneE7 -gneE6 -gneE5 -gneE4 gneE4 gneE5 gneE6 gneE7 gneE8 gneE11 gneE47 gneE48 gneE49 gneE50 -gneE11 -gneE8 -gneE7 -gneE6 -gneE5 -gneE4 gneE4 gneE5 gneE6 gneE7 gneE8 gneE11 gneE47 gneE48 gneE49 gneE50 -gneE11 -gneE8 -gneE7 -gneE6 -gneE5 -gneE4 gneE4 gneE5 gneE6 gneE7 gneE8 gneE11 gneE47 gneE48 gneE49 gneE50 -gneE11 -gneE8 -gneE7"/> 

	<route id="platoon_route_19" edges="-gneE11 -gneE8 -gneE7 -gneE6 -gneE5 -gneE4 gneE4 gneE5 gneE6 gneE7 gneE8 gneE11 gneE47 gneE48 gneE49 gneE50 -gneE11 -gneE8 -gneE7 -gneE6 -gneE5 -gneE4 gneE4 gneE5 gneE6 gneE7 gneE8 gneE11 gneE47 gneE48 gneE49 gneE50 -gneE11 -gneE8 -gneE7 -gneE6 -gneE5 -gneE4 gneE4 gneE5 gneE6 gneE7 gneE8 gneE11 gneE47 gneE48 gneE49 gneE50 -gneE11 -gneE8 -gneE7 -gneE6 -gneE5 -gneE4 gneE4 gneE5 gneE6 gneE7 gneE8 gneE11 gneE47 gneE48 gneE49 gneE50 -gneE11 -gneE8 -gneE7 -gneE6 -gneE5 -gneE4 gneE4 gneE5 gneE6 gneE7 gneE8 gneE11 gneE47 gneE48 gneE49 gneE50 -gneE11 -gneE8 -gneE7 -gneE6 -gneE5 -gneE4 gneE4 gneE5 gneE6 gneE7 gneE8 gneE11 gneE47 gneE48 gneE49 gneE50 -gneE11 -gneE8 -gneE7 -gneE6 -gneE5 -gneE4 gneE4 gneE5 gneE6 gneE7 "/>
	<route id="platoon_route_20" edges="-gneE8 -gneE7 -gneE6 -gneE5 -gneE4 gneE4 gneE5 gneE6 gneE7 gneE8 gneE11 gneE47 gneE48 gneE49 gneE50 -gneE11 -gneE8 -gneE7 -gneE6 -gneE5 -gneE4 gneE4 gneE5 gneE6 gneE7 gneE8 gneE11 gneE47 gneE48 gneE49 gneE50 -gneE11 -gneE8 -gneE7 -gneE6 -gneE5 -gneE4 gneE4 gneE5 gneE6 gneE7 gneE8 gneE11 gneE47 gneE48 gneE49 gneE50 -gneE11 -gneE8 -gneE7 -gneE6 -gneE5 -gneE4 gneE4 gneE5 gneE6 gneE7 gneE8 gneE11 gneE47 gneE48 gneE49 gneE50 -gneE11 -gneE8 -gneE7 -gneE6 -gneE5 -gneE4 gneE4 gneE5 gneE6 gneE7 gneE8 gneE11 gneE47 gneE48 gneE49 gneE50 -gneE11 -gneE8 -gneE7 -gneE6 -gneE5 -gneE4 gneE4 gneE5 gneE6 gneE7 gneE8 gneE11 gneE47 gneE48 gneE49 gneE50 -gneE11 -gneE8 -gneE7 -gneE6 -gneE5 -gneE4 gneE4 gneE5 gneE6 gneE7 "/>
	<route id="platoon_route_21" edges="-gneE7 -gneE6 -gneE5 -gneE4 gneE4 gneE5 gneE6 gneE7 gneE8 gneE11 gneE47 gneE48 gneE49 gneE50 -gneE11 -gneE8 -gneE7 -gneE6 -gneE5 -gneE4 gneE4 gneE5 gneE6 gneE7 gneE8 gneE11 gneE47 gneE48 gneE49 gneE50 -gneE11 -gneE8 -gneE7 -gneE6 -gneE5 -gneE4 gneE4 gneE5 gneE6 gneE7 gneE8 gneE11 gneE47 gneE48 gneE49 gneE50 -gneE11 -gneE8 -gneE7 -gneE6 -gneE5 -gneE4 gneE4 gneE5 gneE6 gneE7 gneE8 gneE11 gneE47 gneE48 gneE49 gneE50 -gneE11 -gneE8 -gneE7 -gneE6 -gneE5 -gneE4 gneE4 gneE5 gneE6 gneE7 gneE8 gneE11 gneE47 gneE48 gneE49 gneE50 -gneE11 -gneE8 -gneE7 -gneE6 -gneE5 -gneE4 gneE4 gneE5 gneE6 gneE7 gneE8 gneE11 gneE47 gneE48 gneE49 gneE50 -gneE11 -gneE8 -gneE7 -gneE6 -gneE5 -gneE4 gneE4 gneE5 gneE6 gneE7 "/>


	<route id="platoon_route_22" edges="-gneE6 -gneE5 -gneE4 gneE4 gneE5 gneE6 gneE7 gneE8 gneE11 gneE47 gneE48 gneE49 gneE50 -gneE11 -gneE8 -gneE7 -gneE6 -gneE5 -gneE4 gneE4 gneE5 gneE6 gneE7 gneE8 gneE11 gneE47 gneE48 gneE49 gneE50 -gneE11 -gneE8 -gneE7 -gneE6 -gneE5 -gneE4 gneE4 gneE5 gneE6 gneE7 gneE8 gneE11 gneE47 gneE48 gneE49 gneE50 -gneE11 -gneE8 -gneE7 -gneE6 -gneE5 -gneE4 gneE4 gneE5 gneE6 gneE7 gneE8 gneE11 gneE47 gneE48 gneE49 gneE50 -gneE11 -gneE8 -gneE7 -gneE6 -gneE5 -gneE4 gneE4 gneE5 gneE6 gneE7 gneE8 gneE11 gneE47 gneE48 gneE49 gneE50 -gneE11 -gneE8 -gneE7 -gneE6 -gneE5 -gneE4 gneE4 gneE5 gneE6 gneE7 gneE8 gneE11 gneE47 gneE48 gneE49 gneE50 -gneE11 -gneE8 -gneE7 -gneE6 -gneE5 -gneE4  gneE4 gneE5 gneE6 gneE7 gneE8 gneE11 "/>
	<route id="platoon_route_23" edges="-gneE5 -gneE4 gneE4 gneE5 gneE6 gneE7 gneE8 gneE11 gneE47 gneE48 gneE49 gneE50 -gneE11 -gneE8 -gneE7 -gneE6 -gneE5 -gneE4 gneE4 gneE5 gneE6 gneE7 gneE8 gneE11 gneE47 gneE48 gneE49 gneE50 -gneE11 -gneE8 -gneE7 -gneE6 -gneE5 -gneE4 gneE4 gneE5 gneE6 gneE7 gneE8 gneE11 gneE47 gneE48 gneE49 gneE50 -gneE11 -gneE8 -gneE7 -gneE6 -gneE5 -gneE4 gneE4 gneE5 gneE6 gneE7 gneE8 gneE11 gneE47 gneE48 gneE49 gneE50 -gneE11 -gneE8 -gneE7 -gneE6 -gneE5 -gneE4 gneE4 gneE5 gneE6 gneE7 gneE8 gneE11 gneE47 gneE48 gneE49 gneE50 -gneE11 -gneE8 -gneE7 -gneE6 -gneE5 -gneE4 gneE4 gneE5 gneE6 gneE7 gneE8 gneE11 gneE47 gneE48 gneE49 gneE50 -gneE11 -gneE8 -gneE7 -gneE6 -gneE5 -gneE4 gneE4 gneE5 gneE6 gneE7 gneE8 gneE11 gneE47 gneE48 "/>
	<route id="platoon_route_24" edges="-gneE4 gneE4 gneE5 gneE6 gneE7 gneE8 gneE11 gneE47 gneE48 gneE49 gneE50 -gneE11 -gneE8 -gneE7 -gneE6 -gneE5 -gneE4 gneE4 gneE5 gneE6 gneE7 gneE8 gneE11 gneE47 gneE48 gneE49 gneE50 -gneE11 -gneE8 -gneE7 -gneE6 -gneE5 -gneE4 gneE4 gneE5 gneE6 gneE7 gneE8 gneE11 gneE47 gneE48 gneE49 gneE50 -gneE11 -gneE8 -gneE7 -gneE6 -gneE5 -gneE4 gneE4 gneE5 gneE6 gneE7 gneE8 gneE11 gneE47 gneE48 gneE49 gneE50 -gneE11 -gneE8 -gneE7 -gneE6 -gneE5 -gneE4 gneE4 gneE5 gneE6 gneE7 gneE8 gneE11 gneE47 gneE48 gneE49 gneE50 -gneE11 -gneE8 -gneE7 -gneE6 -gneE5 -gneE4 gneE4 gneE5 gneE6 gneE7 gneE8 gneE11 gneE47 gneE48 gneE49 gneE50 -gneE11 -gneE8 -gneE7 -gneE6 -gneE5 -gneE4 gneE4 gneE5 gneE6 gneE7 gneE8 gneE11 gneE47 gneE48 "/>


	<route id="leaver_route" edges=" gneE14 gneE4 gneE5 gneE6 gneE7 gneE8 gneE11 gneE47 gneE33 gneE34 gneE35 edge_0_9 edge_0_0 edge_0_1 edge_0_2 edge_0_3 edge_0_4 gneE41"/>

</routes>
