<routes>
	<vType id="vtypeauto" accel="2.5" decel="6.0" sigma="0.5" length="4" minGap="0" maxSpeed="41" color="137,164,204" probability="1" >
		<carFollowing-CC tau="0.5" omegaN="1" xi="2" c1="0.5" decel="6" lambda="0.5" lanesCount="1" ccAccel="1.5"/>
	</vType>

	<route id="platoon_route_1" edges="edge_0_8 edge_0_9 edge_0_0 edge_0_1 edge_0_2 edge_0_3 edge_0_4 -edge_0_4 -edge_0_3 -edge_0_2 -edge_0_1 -edge_0_0 -edge_0_9 -edge_0_8 gneE48 gneE49 gneE50 gneE47 edge_0_8 edge_0_9 edge_0_0 edge_0_1 edge_0_2 edge_0_3 edge_0_4 -edge_0_4 -edge_0_3 -edge_0_2 -edge_0_1 -edge_0_0 -edge_0_9 -edge_0_8 gneE48 gneE49 gneE50 gneE47 edge_0_8 edge_0_9 edge_0_0 edge_0_1 edge_0_2 edge_0_3 edge_0_4 -edge_0_4 -edge_0_3 -edge_0_2 -edge_0_1 -edge_0_0 -edge_0_9 -edge_0_8 gneE48 gneE49 gneE50 gneE47 edge_0_8 edge_0_9 edge_0_0 edge_0_1 edge_0_2 edge_0_3 edge_0_4 -edge_0_4 -edge_0_3 -edge_0_2 -edge_0_1 -edge_0_0 -edge_0_9 -edge_0_8 gneE48 gneE49 gneE50 gneE47 edge_0_8 edge_0_9 edge_0_0 edge_0_1 edge_0_2 edge_0_3 edge_0_4 -edge_0_4 -edge_0_3 -edge_0_2 -edge_0_1 -edge_0_0 -edge_0_9 -edge_0_8 gneE48 gneE49 gneE50 gneE47 "/>
	<route id="platoon_route_2" edges="-edge_0_4 -edge_0_3 -edge_0_2 -edge_0_1 -edge_0_0 -edge_0_9 -edge_0_8 gneE48 gneE49 gneE50 gneE47 edge_0_8 edge_0_9 edge_0_0 edge_0_1 edge_0_2 edge_0_3 edge_0_4 -edge_0_4 -edge_0_3 -edge_0_2 -edge_0_1 -edge_0_0 -edge_0_9 -edge_0_8 gneE48 gneE49 gneE50 gneE47 edge_0_8 edge_0_9 edge_0_0 edge_0_1 edge_0_2 edge_0_3 edge_0_4 -edge_0_4 -edge_0_3 -edge_0_2 -edge_0_1 -edge_0_0 -edge_0_9 -edge_0_8 gneE48 gneE49 gneE50 gneE47 edge_0_8 edge_0_9 edge_0_0 edge_0_1 edge_0_2 edge_0_3 edge_0_4 -edge_0_4 -edge_0_3 -edge_0_2 -edge_0_1 -edge_0_0 -edge_0_9 -edge_0_8 gneE48 gneE49 gneE50 gneE47 edge_0_8 edge_0_9 edge_0_0 edge_0_1 edge_0_2 edge_0_3 edge_0_4 -edge_0_4 -edge_0_3 -edge_0_2 -edge_0_1 -edge_0_0 -edge_0_9 -edge_0_8 gneE48 gneE49 gneE50 gneE47 edge_0_8 edge_0_9 edge_0_0 edge_0_1 edge_0_2 edge_0_3 edge_0_4"/>


	<route id="platoon_route_3" edges="gneE4 gneE5 gneE6 gneE7 gneE8 gneE11 gneE47 gneE48 gneE49 gneE50 -gneE11 -gneE8 -gneE7 -gneE6 -gneE5 -gneE4 gneE4 gneE5 gneE6 gneE7 gneE8 gneE11 gneE47 gneE48 gneE49 gneE50 -gneE11 -gneE8 -gneE7 -gneE6 -gneE5 -gneE4 gneE4 gneE5 gneE6 gneE7 gneE8 gneE11 gneE47 gneE48 gneE49 gneE50 -gneE11 -gneE8 -gneE7 -gneE6 -gneE5 -gneE4 gneE4 gneE5 gneE6 gneE7 gneE8 gneE11 gneE47 gneE48 gneE49 gneE50 -gneE11 -gneE8 -gneE7 -gneE6 -gneE5 -gneE4 gneE4 gneE5 gneE6 gneE7 gneE8 gneE11 gneE47 gneE48 gneE49 gneE50 -gneE11 -gneE8 -gneE7 -gneE6 -gneE5 -gneE4 gneE4 gneE5 gneE6 gneE7 gneE8 gneE11 gneE47 gneE48 gneE49 gneE50 -gneE11 -gneE8 -gneE7 -gneE6 -gneE5 -gneE4 gneE4 gneE5 gneE6 gneE7 gneE8 gneE11 gneE47 gneE48 gneE49 "/>
	<route id="platoon_route_4" edges="-gneE11 -gneE8 -gneE7 -gneE6 -gneE5 -gneE4 gneE4 gneE5 gneE6 gneE7 gneE8 gneE11 gneE47 gneE48 gneE49 gneE50 -gneE11 -gneE8 -gneE7 -gneE6 -gneE5 -gneE4 gneE4 gneE5 gneE6 gneE7 gneE8 gneE11 gneE47 gneE48 gneE49 gneE50 -gneE11 -gneE8 -gneE7 -gneE6 -gneE5 -gneE4 gneE4 gneE5 gneE6 gneE7 gneE8 gneE11 gneE47 gneE48 gneE49 gneE50 -gneE11 -gneE8 -gneE7 -gneE6 -gneE5 -gneE4 gneE4 gneE5 gneE6 gneE7 gneE8 gneE11 gneE47 gneE48 gneE49 gneE50 -gneE11 -gneE8 -gneE7 -gneE6 -gneE5 -gneE4 gneE4 gneE5 gneE6 gneE7 gneE8 gneE11 gneE47 gneE48 gneE49 gneE50 -gneE11 -gneE8 -gneE7 -gneE6 -gneE5 -gneE4 gneE4 gneE5 gneE6 gneE7 gneE8 gneE11 gneE47 gneE48 gneE49 gneE50 -gneE11 -gneE8 -gneE7 -gneE6 -gneE5 -gneE4 gneE4 gneE5 gneE6 gneE7 "/>

	<route id="leaver_route" edges=" gneE14 gneE4 gneE5 gneE6 gneE7 gneE8 gneE11 gneE47 gneE33 gneE34 gneE35 edge_0_9 edge_0_0 edge_0_1 edge_0_2 edge_0_3 edge_0_4 gneE41"/>

</routes>
