<routes>
	<vType id="vtypeauto" accel="2.5" decel="6.0" sigma="0.5" length="4" minGap="0" maxSpeed="41" color="137,164,204" probability="1" >
		<carFollowing-CC tau="0.5" omegaN="1" xi="2" c1="0.5" decel="6" lambda="0.5" lanesCount="1" ccAccel="1.5"/>
	</vType>

  
	<route id="platoon_route_01" edges="edge_0_8 edge_0_0 edge_0_1 edge_0_2 edge_0_3 edge_0_4 edge_0_5 edge_0_6 -edge_0_6 -edge_0_5 -edge_0_4 -edge_0_3 -edge_0_2 -edge_0_1 -edge_0_0 -edge_0_8 gneE48 gneE49 gneE50 gneE47 edge_0_8 edge_0_0 edge_0_1 edge_0_2 edge_0_3 edge_0_4 edge_0_5 edge_0_6 -edge_0_6 -edge_0_5 -edge_0_4 -edge_0_3 -edge_0_2 -edge_0_1 -edge_0_0 -edge_0_8 gneE48 gneE49 gneE50 gneE47 edge_0_8 edge_0_0 edge_0_1 edge_0_2 edge_0_3 edge_0_4 edge_0_5 edge_0_6 -edge_0_6 -edge_0_5 -edge_0_4 -edge_0_3 -edge_0_2 -edge_0_1 -edge_0_0 -edge_0_8 gneE48 gneE49 gneE50 gneE47 edge_0_8 edge_0_0 edge_0_1 edge_0_2 edge_0_3 edge_0_4 edge_0_5 edge_0_6 -edge_0_6 -edge_0_5 -edge_0_4 -edge_0_3 -edge_0_2 -edge_0_1 -edge_0_0 -edge_0_8 gneE48 gneE49 gneE50 gneE47 edge_0_8 edge_0_0 edge_0_1 edge_0_2 edge_0_3 edge_0_4 edge_0_5 edge_0_6 -edge_0_6 -edge_0_5 -edge_0_4 -edge_0_3 -edge_0_2 -edge_0_1 -edge_0_0 -edge_0_8 gneE48 gneE49 gneE50 gneE47 "/>
	<route id="platoon_route_02" edges="edge_0_1 edge_0_2 edge_0_3 edge_0_4 edge_0_5 edge_0_6 -edge_0_6 -edge_0_5 -edge_0_4 -edge_0_3 -edge_0_2 -edge_0_1 -edge_0_0 -edge_0_8 gneE48 gneE49 gneE50 gneE47 edge_0_8 edge_0_0 edge_0_1 edge_0_2 edge_0_3 edge_0_4 edge_0_5 edge_0_6 -edge_0_6 -edge_0_5 -edge_0_4 -edge_0_3 -edge_0_2 -edge_0_1 -edge_0_0 -edge_0_8 gneE48 gneE49 gneE50 gneE47 edge_0_8 edge_0_0 edge_0_1 edge_0_2 edge_0_3 edge_0_4 edge_0_5 edge_0_6 -edge_0_6 -edge_0_5 -edge_0_4 -edge_0_3 -edge_0_2 -edge_0_1 -edge_0_0 -edge_0_8 gneE48 gneE49 gneE50 gneE47 edge_0_8 edge_0_0 edge_0_1 edge_0_2 edge_0_3 edge_0_4 edge_0_5 edge_0_6 -edge_0_6 -edge_0_5 -edge_0_4 -edge_0_3 -edge_0_2 -edge_0_1 -edge_0_0 -edge_0_8 gneE48 gneE49 gneE50 gneE47 edge_0_8 edge_0_0 edge_0_1 edge_0_2 edge_0_3 edge_0_4 edge_0_5 edge_0_6 -edge_0_6 -edge_0_5 -edge_0_4 -edge_0_3 -edge_0_2 -edge_0_1 -edge_0_0 -edge_0_8 gneE48 gneE49 gneE50 gneE47 edge_0_8 edge_0_0 "/>
	<route id="platoon_route_03" edges="edge_0_3 edge_0_4 edge_0_5 edge_0_6 -edge_0_6 -edge_0_5 -edge_0_4 -edge_0_3 -edge_0_2 -edge_0_1 -edge_0_0 -edge_0_8 gneE48 gneE49 gneE50 gneE47 edge_0_8 edge_0_0 edge_0_1 edge_0_2 edge_0_3 edge_0_4 edge_0_5 edge_0_6 -edge_0_6 -edge_0_5 -edge_0_4 -edge_0_3 -edge_0_2 -edge_0_1 -edge_0_0 -edge_0_8 gneE48 gneE49 gneE50 gneE47 edge_0_8 edge_0_0 edge_0_1 edge_0_2 edge_0_3 edge_0_4 edge_0_5 edge_0_6 -edge_0_6 -edge_0_5 -edge_0_4 -edge_0_3 -edge_0_2 -edge_0_1 -edge_0_0 -edge_0_8 gneE48 gneE49 gneE50 gneE47 edge_0_8 edge_0_0 edge_0_1 edge_0_2 edge_0_3 edge_0_4 edge_0_5 edge_0_6 -edge_0_6 -edge_0_5 -edge_0_4 -edge_0_3 -edge_0_2 -edge_0_1 -edge_0_0 -edge_0_8 gneE48 gneE49 gneE50 gneE47 edge_0_8 edge_0_0 edge_0_1 edge_0_2 edge_0_3 edge_0_4 edge_0_5 edge_0_6 -edge_0_6 -edge_0_5 -edge_0_4 -edge_0_3 -edge_0_2 -edge_0_1 -edge_0_0 -edge_0_8 gneE48 gneE49 gneE50 gneE47 edge_0_8 edge_0_0 edge_0_1 edge_0_2 "/>
	<route id="platoon_route_04" edges="edge_0_5 edge_0_6 -edge_0_6 -edge_0_5 -edge_0_4 -edge_0_3 -edge_0_2 -edge_0_1 -edge_0_0 -edge_0_8 gneE48 gneE49 gneE50 gneE47 edge_0_8 edge_0_0 edge_0_1 edge_0_2 edge_0_3 edge_0_4 edge_0_5 edge_0_6 -edge_0_6 -edge_0_5 -edge_0_4 -edge_0_3 -edge_0_2 -edge_0_1 -edge_0_0 -edge_0_8 gneE48 gneE49 gneE50 gneE47 edge_0_8 edge_0_0 edge_0_1 edge_0_2 edge_0_3 edge_0_4 edge_0_5 edge_0_6 -edge_0_6 -edge_0_5 -edge_0_4 -edge_0_3 -edge_0_2 -edge_0_1 -edge_0_0 -edge_0_8 gneE48 gneE49 gneE50 gneE47 edge_0_8 edge_0_0 edge_0_1 edge_0_2 edge_0_3 edge_0_4 edge_0_5 edge_0_6 -edge_0_6 -edge_0_5 -edge_0_4 -edge_0_3 -edge_0_2 -edge_0_1 -edge_0_0 -edge_0_8 gneE48 gneE49 gneE50 gneE47 edge_0_8 edge_0_0 edge_0_1 edge_0_2 edge_0_3 edge_0_4 edge_0_5 edge_0_6 -edge_0_6 -edge_0_5 -edge_0_4 -edge_0_3 -edge_0_2 -edge_0_1 -edge_0_0 -edge_0_8 gneE48 gneE49 gneE50 gneE47 edge_0_8 edge_0_0 edge_0_1 edge_0_2 edge_0_3 edge_0_4 "/>
	<route id="platoon_route_05" edges="-edge_0_6 -edge_0_5 -edge_0_4 -edge_0_3 -edge_0_2 -edge_0_1 -edge_0_0 -edge_0_8 gneE48 gneE49 gneE50 gneE47 edge_0_8 edge_0_0 edge_0_1 edge_0_2 edge_0_3 edge_0_4 edge_0_5 edge_0_6 -edge_0_6 -edge_0_5 -edge_0_4 -edge_0_3 -edge_0_2 -edge_0_1 -edge_0_0 -edge_0_8 gneE48 gneE49 gneE50 gneE47 edge_0_8 edge_0_0 edge_0_1 edge_0_2 edge_0_3 edge_0_4 edge_0_5 edge_0_6 -edge_0_6 -edge_0_5 -edge_0_4 -edge_0_3 -edge_0_2 -edge_0_1 -edge_0_0 -edge_0_8 gneE48 gneE49 gneE50 gneE47 edge_0_8 edge_0_0 edge_0_1 edge_0_2 edge_0_3 edge_0_4 edge_0_5 edge_0_6 -edge_0_6 -edge_0_5 -edge_0_4 -edge_0_3 -edge_0_2 -edge_0_1 -edge_0_0 -edge_0_8 gneE48 gneE49 gneE50 gneE47 edge_0_8 edge_0_0 edge_0_1 edge_0_2 edge_0_3 edge_0_4 edge_0_5 edge_0_6 -edge_0_6 -edge_0_5 -edge_0_4 -edge_0_3 -edge_0_2 -edge_0_1 -edge_0_0 -edge_0_8 gneE48 gneE49 gneE50 gneE47 edge_0_8 edge_0_0 edge_0_1 edge_0_2 edge_0_3 edge_0_4 edge_0_5 edge_0_6 -edge_0_6 "/>
	<route id="platoon_route_06" edges="-edge_0_4 -edge_0_3 -edge_0_2 -edge_0_1 -edge_0_0 -edge_0_8 gneE48 gneE49 gneE50 gneE47 edge_0_8 edge_0_0 edge_0_1 edge_0_2 edge_0_3 edge_0_4 edge_0_5 edge_0_6 -edge_0_6 -edge_0_5 -edge_0_4 -edge_0_3 -edge_0_2 -edge_0_1 -edge_0_0 -edge_0_8 gneE48 gneE49 gneE50 gneE47 edge_0_8 edge_0_0 edge_0_1 edge_0_2 edge_0_3 edge_0_4 edge_0_5 edge_0_6 -edge_0_6 -edge_0_5 -edge_0_4 -edge_0_3 -edge_0_2 -edge_0_1 -edge_0_0 -edge_0_8 gneE48 gneE49 gneE50 gneE47 edge_0_8 edge_0_0 edge_0_1 edge_0_2 edge_0_3 edge_0_4 edge_0_5 edge_0_6 -edge_0_6 -edge_0_5 -edge_0_4 -edge_0_3 -edge_0_2 -edge_0_1 -edge_0_0 -edge_0_8 gneE48 gneE49 gneE50 gneE47 edge_0_8 edge_0_0 edge_0_1 edge_0_2 edge_0_3 edge_0_4 edge_0_5 edge_0_6 -edge_0_6 -edge_0_5 -edge_0_4 -edge_0_3 -edge_0_2 -edge_0_1 -edge_0_0 -edge_0_8 gneE48 gneE49 gneE50 gneE47 edge_0_8 edge_0_0 edge_0_1 edge_0_2 edge_0_3 edge_0_4 edge_0_5 edge_0_6 -edge_0_6 -edge_0_5 -edge_0_4"/>
	<route id="platoon_route_07" edges="-edge_0_2 -edge_0_1 -edge_0_0 -edge_0_8 gneE48 gneE49 gneE50 gneE47 edge_0_8 edge_0_0 edge_0_1 edge_0_2 edge_0_3 edge_0_4 edge_0_5 edge_0_6 -edge_0_6 -edge_0_5 -edge_0_4 -edge_0_3 -edge_0_2 -edge_0_1 -edge_0_0 -edge_0_8 gneE48 gneE49 gneE50 gneE47 edge_0_8 edge_0_0 edge_0_1 edge_0_2 edge_0_3 edge_0_4 edge_0_5 edge_0_6 -edge_0_6 -edge_0_5 -edge_0_4 -edge_0_3 -edge_0_2 -edge_0_1 -edge_0_0 -edge_0_8 gneE48 gneE49 gneE50 gneE47 edge_0_8 edge_0_0 edge_0_1 edge_0_2 edge_0_3 edge_0_4 edge_0_5 edge_0_6 -edge_0_6 -edge_0_5 -edge_0_4 -edge_0_3 -edge_0_2 -edge_0_1 -edge_0_0 -edge_0_8 gneE48 gneE49 gneE50 gneE47 edge_0_8 edge_0_0 edge_0_1 edge_0_2 edge_0_3 edge_0_4 edge_0_5 edge_0_6 -edge_0_6 -edge_0_5 -edge_0_4 -edge_0_3 -edge_0_2 -edge_0_1 -edge_0_0 -edge_0_8 gneE48 gneE49 gneE50 gneE47 edge_0_8 edge_0_0 edge_0_1 edge_0_2 edge_0_3 edge_0_4 edge_0_5 edge_0_6 -edge_0_6 -edge_0_5 -edge_0_4 -edge_0_3 -edge_0_2 "/>
	<route id="platoon_route_08" edges="-edge_0_0 -edge_0_8 gneE48 gneE49 gneE50 gneE47 edge_0_8 edge_0_0 edge_0_1 edge_0_2 edge_0_3 edge_0_4 edge_0_5 edge_0_6 -edge_0_6 -edge_0_5 -edge_0_4 -edge_0_3 -edge_0_2 -edge_0_1 -edge_0_0 -edge_0_8 gneE48 gneE49 gneE50 gneE47 edge_0_8 edge_0_0 edge_0_1 edge_0_2 edge_0_3 edge_0_4 edge_0_5 edge_0_6 -edge_0_6 -edge_0_5 -edge_0_4 -edge_0_3 -edge_0_2 -edge_0_1 -edge_0_0 -edge_0_8 gneE48 gneE49 gneE50 gneE47 edge_0_8 edge_0_0 edge_0_1 edge_0_2 edge_0_3 edge_0_4 edge_0_5 edge_0_6 -edge_0_6 -edge_0_5 -edge_0_4 -edge_0_3 -edge_0_2 -edge_0_1 -edge_0_0 -edge_0_8 gneE48 gneE49 gneE50 gneE47 edge_0_8 edge_0_0 edge_0_1 edge_0_2 edge_0_3 edge_0_4 edge_0_5 edge_0_6 -edge_0_6 -edge_0_5 -edge_0_4 -edge_0_3 -edge_0_2 -edge_0_1 -edge_0_0 -edge_0_8 gneE48 gneE49 gneE50 gneE47 edge_0_8 edge_0_0 edge_0_1 edge_0_2 edge_0_3 edge_0_4 edge_0_5 edge_0_6 -edge_0_6 -edge_0_5 -edge_0_4 -edge_0_3 -edge_0_2 -edge_0_1 -edge_0_0"/>
	<route id="platoon_route_09" edges="gneE3 gneE4 gneE5 gneE6 gneE7 gneE8 gneE9 gneE11 gneE47 gneE48 gneE49 gneE50 -gneE11 -gneE9 -gneE8 -gneE7 -gneE6 -gneE5 -gneE4 -gneE3 gneE3 gneE4 gneE5 gneE6 gneE7 gneE8 gneE9 gneE11 gneE47 gneE48 gneE49 gneE50 -gneE11 -gneE9 -gneE8 -gneE7 -gneE6 -gneE5 -gneE4 -gneE3 gneE3 gneE4 gneE5 gneE6 gneE7 gneE8 gneE9 gneE11 gneE47 gneE48 gneE49 gneE50 -gneE11 -gneE9 -gneE8 -gneE7 -gneE6 -gneE5 -gneE4 -gneE3 gneE3 gneE4 gneE5 gneE6 gneE7 gneE8 gneE9 gneE11 gneE47 gneE48 gneE49 gneE50 -gneE11 -gneE9 -gneE8 -gneE7 -gneE6 -gneE5 -gneE4 -gneE3 gneE3 gneE4 gneE5 gneE6 gneE7 gneE8 gneE9 gneE11 gneE47 gneE48 gneE49 gneE50 -gneE11 -gneE9 -gneE8 -gneE7 -gneE6 -gneE5 -gneE4 -gneE3 gneE3 gneE4 gneE5 gneE6 gneE7 gneE8 gneE9 gneE11 gneE47 gneE48 gneE49 gneE50 -gneE11 -gneE9 -gneE8 -gneE7 -gneE6 -gneE5 -gneE4 -gneE3 "/>
	<route id="platoon_route_10" edges="gneE5 gneE6 gneE7 gneE8 gneE9 gneE11 gneE47 gneE48 gneE49 gneE50 -gneE11 -gneE9 -gneE8 -gneE7 -gneE6 -gneE5 -gneE4 -gneE3 gneE3 gneE4 gneE5 gneE6 gneE7 gneE8 gneE9 gneE11 gneE47 gneE48 gneE49 gneE50 -gneE11 -gneE9 -gneE8 -gneE7 -gneE6 -gneE5 -gneE4 -gneE3 gneE3 gneE4 gneE5 gneE6 gneE7 gneE8 gneE9 gneE11 gneE47 gneE48 gneE49 gneE50 -gneE11 -gneE9 -gneE8 -gneE7 -gneE6 -gneE5 -gneE4 -gneE3 gneE3 gneE4 gneE5 gneE6 gneE7 gneE8 gneE9 gneE11 gneE47 gneE48 gneE49 gneE50 -gneE11 -gneE9 -gneE8 -gneE7 -gneE6 -gneE5 -gneE4 -gneE3 gneE3 gneE4 gneE5 gneE6 gneE7 gneE8 gneE9 gneE11 gneE47 gneE48 gneE49 gneE50 -gneE11 -gneE9 -gneE8 -gneE7 -gneE6 -gneE5 -gneE4 -gneE3 gneE3 gneE4 gneE5 gneE6 gneE7 gneE8 gneE9 gneE11 gneE47 gneE48 gneE49 gneE50 -gneE11 -gneE9 -gneE8 -gneE7 -gneE6 -gneE5 -gneE4 -gneE3 gneE3 gneE4 "/>
	<route id="platoon_route_11" edges="gneE7 gneE8 gneE9 gneE11 gneE47 gneE48 gneE49 gneE50 -gneE11 -gneE9 -gneE8 -gneE7 -gneE6 -gneE5 -gneE4 -gneE3 gneE3 gneE4 gneE5 gneE6 gneE7 gneE8 gneE9 gneE11 gneE47 gneE48 gneE49 gneE50 -gneE11 -gneE9 -gneE8 -gneE7 -gneE6 -gneE5 -gneE4 -gneE3 gneE3 gneE4 gneE5 gneE6 gneE7 gneE8 gneE9 gneE11 gneE47 gneE48 gneE49 gneE50 -gneE11 -gneE9 -gneE8 -gneE7 -gneE6 -gneE5 -gneE4 -gneE3 gneE3 gneE4 gneE5 gneE6 gneE7 gneE8 gneE9 gneE11 gneE47 gneE48 gneE49 gneE50 -gneE11 -gneE9 -gneE8 -gneE7 -gneE6 -gneE5 -gneE4 -gneE3 gneE3 gneE4 gneE5 gneE6 gneE7 gneE8 gneE9 gneE11 gneE47 gneE48 gneE49 gneE50 -gneE11 -gneE9 -gneE8 -gneE7 -gneE6 -gneE5 -gneE4 -gneE3 gneE3 gneE4 gneE5 gneE6 gneE7 gneE8 gneE9 gneE11 gneE47 gneE48 gneE49 gneE50 -gneE11 -gneE9 -gneE8 -gneE7 -gneE6 -gneE5 -gneE4 -gneE3 gneE3 gneE4 gneE5 gneE6"/>
	<route id="platoon_route_12" edges="gneE9 gneE11 gneE47 gneE48 gneE49 gneE50 -gneE11 -gneE9 -gneE8 -gneE7 -gneE6 -gneE5 -gneE4 -gneE3 gneE3 gneE4 gneE5 gneE6 gneE7 gneE8 gneE9 gneE11 gneE47 gneE48 gneE49 gneE50 -gneE11 -gneE9 -gneE8 -gneE7 -gneE6 -gneE5 -gneE4 -gneE3 gneE3 gneE4 gneE5 gneE6 gneE7 gneE8 gneE9 gneE11 gneE47 gneE48 gneE49 gneE50 -gneE11 -gneE9 -gneE8 -gneE7 -gneE6 -gneE5 -gneE4 -gneE3 gneE3 gneE4 gneE5 gneE6 gneE7 gneE8 gneE9 gneE11 gneE47 gneE48 gneE49 gneE50 -gneE11 -gneE9 -gneE8 -gneE7 -gneE6 -gneE5 -gneE4 -gneE3 gneE3 gneE4 gneE5 gneE6 gneE7 gneE8 gneE9 gneE11 gneE47 gneE48 gneE49 gneE50 -gneE11 -gneE9 -gneE8 -gneE7 -gneE6 -gneE5 -gneE4 -gneE3 gneE3 gneE4 gneE5 gneE6 gneE7 gneE8 gneE9 gneE11 gneE47 gneE48 gneE49 gneE50 -gneE11 -gneE9 -gneE8 -gneE7 -gneE6 -gneE5 -gneE4 -gneE3 gneE3 gneE4 gneE5 gneE6 gneE7 gneE8 "/>
	<route id="platoon_route_13" edges="-gneE11 -gneE9 -gneE8 -gneE7 -gneE6 -gneE5 -gneE4 -gneE3 gneE3 gneE4 gneE5 gneE6 gneE7 gneE8 gneE9 gneE11 gneE47 gneE48 gneE49 gneE50 -gneE11 -gneE9 -gneE8 -gneE7 -gneE6 -gneE5 -gneE4 -gneE3 gneE3 gneE4 gneE5 gneE6 gneE7 gneE8 gneE9 gneE11 gneE47 gneE48 gneE49 gneE50 -gneE11 -gneE9 -gneE8 -gneE7 -gneE6 -gneE5 -gneE4 -gneE3 gneE3 gneE4 gneE5 gneE6 gneE7 gneE8 gneE9 gneE11 gneE47 gneE48 gneE49 gneE50 -gneE11 -gneE9 -gneE8 -gneE7 -gneE6 -gneE5 -gneE4 -gneE3 gneE3 gneE4 gneE5 gneE6 gneE7 gneE8 gneE9 gneE11 gneE47 gneE48 gneE49 gneE50 -gneE11 -gneE9 -gneE8 -gneE7 -gneE6 -gneE5 -gneE4 -gneE3 gneE3 gneE4 gneE5 gneE6 gneE7 gneE8 gneE9 gneE11 gneE47 gneE48 gneE49 gneE50 -gneE11 -gneE9 -gneE8 -gneE7 -gneE6 -gneE5 -gneE4 -gneE3 gneE3 gneE4 gneE5 gneE6 gneE7 gneE8 gneE9 gneE11 gneE47 gneE48 gneE49 gneE50 -gneE11 "/>
	<route id="platoon_route_14" edges="-gneE8 -gneE7 -gneE6 -gneE5 -gneE4 -gneE3 gneE3 gneE4 gneE5 gneE6 gneE7 gneE8 gneE9 gneE11 gneE47 gneE48 gneE49 gneE50 -gneE11 -gneE9 -gneE8 -gneE7 -gneE6 -gneE5 -gneE4 -gneE3 gneE3 gneE4 gneE5 gneE6 gneE7 gneE8 gneE9 gneE11 gneE47 gneE48 gneE49 gneE50 -gneE11 -gneE9 -gneE8 -gneE7 -gneE6 -gneE5 -gneE4 -gneE3 gneE3 gneE4 gneE5 gneE6 gneE7 gneE8 gneE9 gneE11 gneE47 gneE48 gneE49 gneE50 -gneE11 -gneE9 -gneE8 -gneE7 -gneE6 -gneE5 -gneE4 -gneE3 gneE3 gneE4 gneE5 gneE6 gneE7 gneE8 gneE9 gneE11 gneE47 gneE48 gneE49 gneE50 -gneE11 -gneE9 -gneE8 -gneE7 -gneE6 -gneE5 -gneE4 -gneE3 gneE3 gneE4 gneE5 gneE6 gneE7 gneE8 gneE9 gneE11 gneE47 gneE48 gneE49 gneE50 -gneE11 -gneE9 -gneE8 -gneE7 -gneE6 -gneE5 -gneE4 -gneE3 gneE3 gneE4 gneE5 gneE6 gneE7 gneE8 gneE9 gneE11 gneE47 gneE48 gneE49 gneE50 -gneE11 -gneE9 -gneE8 "/>
	<route id="platoon_route_15" edges="-gneE6 -gneE5 -gneE4 -gneE3 gneE3 gneE4 gneE5 gneE6 gneE7 gneE8 gneE9 gneE11 gneE47 gneE48 gneE49 gneE50 -gneE11 -gneE9 -gneE8 -gneE7 -gneE6 -gneE5 -gneE4 -gneE3 gneE3 gneE4 gneE5 gneE6 gneE7 gneE8 gneE9 gneE11 gneE47 gneE48 gneE49 gneE50 -gneE11 -gneE9 -gneE8 -gneE7 -gneE6 -gneE5 -gneE4 -gneE3 gneE3 gneE4 gneE5 gneE6 gneE7 gneE8 gneE9 gneE11 gneE47 gneE48 gneE49 gneE50 -gneE11 -gneE9 -gneE8 -gneE7 -gneE6 -gneE5 -gneE4 -gneE3 gneE3 gneE4 gneE5 gneE6 gneE7 gneE8 gneE9 gneE11 gneE47 gneE48 gneE49 gneE50 -gneE11 -gneE9 -gneE8 -gneE7 -gneE6 -gneE5 -gneE4 -gneE3 gneE3 gneE4 gneE5 gneE6 gneE7 gneE8 gneE9 gneE11 gneE47 gneE48 gneE49 gneE50 -gneE11 -gneE9 -gneE8 -gneE7 -gneE6 -gneE5 -gneE4 -gneE3 gneE3 gneE4 gneE5 gneE6 gneE7 gneE8 gneE9 gneE11 gneE47 gneE48 gneE49 gneE50 -gneE11 -gneE9 -gneE8 -gneE7 -gneE6 "/>
	<route id="platoon_route_16" edges="-gneE4 -gneE3 gneE3 gneE4 gneE5 gneE6 gneE7 gneE8 gneE9 gneE11 gneE47 gneE48 gneE49 gneE50 -gneE11 -gneE9 -gneE8 -gneE7 -gneE6 -gneE5 -gneE4 -gneE3 gneE3 gneE4 gneE5 gneE6 gneE7 gneE8 gneE9 gneE11 gneE47 gneE48 gneE49 gneE50 -gneE11 -gneE9 -gneE8 -gneE7 -gneE6 -gneE5 -gneE4 -gneE3 gneE3 gneE4 gneE5 gneE6 gneE7 gneE8 gneE9 gneE11 gneE47 gneE48 gneE49 gneE50 -gneE11 -gneE9 -gneE8 -gneE7 -gneE6 -gneE5 -gneE4 -gneE3 gneE3 gneE4 gneE5 gneE6 gneE7 gneE8 gneE9 gneE11 gneE47 gneE48 gneE49 gneE50 -gneE11 -gneE9 -gneE8 -gneE7 -gneE6 -gneE5 -gneE4 -gneE3 gneE3 gneE4 gneE5 gneE6 gneE7 gneE8 gneE9 gneE11 gneE47 gneE48 gneE49 gneE50 -gneE11 -gneE9 -gneE8 -gneE7 -gneE6 -gneE5 -gneE4 -gneE3 gneE3 gneE4 gneE5 gneE6 gneE7 gneE8 gneE9 gneE11 gneE47 gneE48 gneE49 gneE50 -gneE11 -gneE9 -gneE8 -gneE7 -gneE6 -gneE5 -gneE4 "/>

   <route id="platoon_route_17" edges="edge_0_8 edge_0_0 edge_0_1 edge_0_2 edge_0_3 edge_0_4 edge_0_5 edge_0_6 -edge_0_6 -edge_0_5 -edge_0_4 -edge_0_3 -edge_0_2 -edge_0_1 -edge_0_0 -edge_0_8 gneE48 gneE49 gneE50 -gneE11 -gneE9 -gneE8 -gneE7 -gneE6 -gneE5 -gneE4 -gneE3 gneE3 gneE4 gneE5 gneE6 gneE7 gneE8 gneE9 gneE11 gneE47 edge_0_8 edge_0_0 edge_0_1 edge_0_2 edge_0_3 edge_0_4 edge_0_5 edge_0_6 -edge_0_6 -edge_0_5 -edge_0_4 -edge_0_3 -edge_0_2 -edge_0_1 -edge_0_0 -edge_0_8 gneE48 gneE49 gneE50 -gneE11 -gneE9 -gneE8 -gneE7 -gneE6 -gneE5 -gneE4 -gneE3 gneE3 gneE4 gneE5 gneE6 gneE7 gneE8 gneE9 gneE11 gneE47 edge_0_8 edge_0_0 edge_0_1 edge_0_2 edge_0_3 edge_0_4 edge_0_5 edge_0_6 -edge_0_6 -edge_0_5 -edge_0_4 -edge_0_3 -edge_0_2 -edge_0_1 -edge_0_0 -edge_0_8 gneE48 gneE49 gneE50 -gneE11 -gneE9 -gneE8 -gneE7 -gneE6 -gneE5 -gneE4 -gneE3 gneE3 gneE4 gneE5 gneE6 gneE7 gneE8 gneE9 gneE11 gneE47 "/>
   <route id="platoon_route_18" edges="edge_0_1 edge_0_2 edge_0_3 edge_0_4 edge_0_5 edge_0_6 -edge_0_6 -edge_0_5 -edge_0_4 -edge_0_3 -edge_0_2 -edge_0_1 -edge_0_0 -edge_0_8 gneE48 gneE49 gneE50 -gneE11 -gneE9 -gneE8 -gneE7 -gneE6 -gneE5 -gneE4 -gneE3 gneE3 gneE4 gneE5 gneE6 gneE7 gneE8 gneE9 gneE11 gneE47 edge_0_8 edge_0_0 edge_0_1 edge_0_2 edge_0_3 edge_0_4 edge_0_5 edge_0_6 -edge_0_6 -edge_0_5 -edge_0_4 -edge_0_3 -edge_0_2 -edge_0_1 -edge_0_0 -edge_0_8 gneE48 gneE49 gneE50 -gneE11 -gneE9 -gneE8 -gneE7 -gneE6 -gneE5 -gneE4 -gneE3 gneE3 gneE4 gneE5 gneE6 gneE7 gneE8 gneE9 gneE11 gneE47 edge_0_8 edge_0_0 edge_0_1 edge_0_2 edge_0_3 edge_0_4 edge_0_5 edge_0_6 -edge_0_6 -edge_0_5 -edge_0_4 -edge_0_3 -edge_0_2 -edge_0_1 -edge_0_0 -edge_0_8 gneE48 gneE49 gneE50 -gneE11 -gneE9 -gneE8 -gneE7 -gneE6 -gneE5 -gneE4 -gneE3 gneE3 gneE4 gneE5 gneE6 gneE7 gneE8 gneE9 gneE11 gneE47 edge_0_8 edge_0_0 "/>
   <route id="platoon_route_19" edges="edge_0_3 edge_0_4 edge_0_5 edge_0_6 -edge_0_6 -edge_0_5 -edge_0_4 -edge_0_3 -edge_0_2 -edge_0_1 -edge_0_0 -edge_0_8 gneE48 gneE49 gneE50 -gneE11 -gneE9 -gneE8 -gneE7 -gneE6 -gneE5 -gneE4 -gneE3 gneE3 gneE4 gneE5 gneE6 gneE7 gneE8 gneE9 gneE11 gneE47 edge_0_8 edge_0_0 edge_0_1 edge_0_2 edge_0_3 edge_0_4 edge_0_5 edge_0_6 -edge_0_6 -edge_0_5 -edge_0_4 -edge_0_3 -edge_0_2 -edge_0_1 -edge_0_0 -edge_0_8 gneE48 gneE49 gneE50 -gneE11 -gneE9 -gneE8 -gneE7 -gneE6 -gneE5 -gneE4 -gneE3 gneE3 gneE4 gneE5 gneE6 gneE7 gneE8 gneE9 gneE11 gneE47 edge_0_8 edge_0_0 edge_0_1 edge_0_2 edge_0_3 edge_0_4 edge_0_5 edge_0_6 -edge_0_6 -edge_0_5 -edge_0_4 -edge_0_3 -edge_0_2 -edge_0_1 -edge_0_0 -edge_0_8 gneE48 gneE49 gneE50 -gneE11 -gneE9 -gneE8 -gneE7 -gneE6 -gneE5 -gneE4 -gneE3 gneE3 gneE4 gneE5 gneE6 gneE7 gneE8 gneE9 gneE11 gneE47 edge_0_8 edge_0_0 edge_0_1 edge_0_2 "/>
   <route id="platoon_route_20" edges="edge_0_5 edge_0_6 -edge_0_6 -edge_0_5 -edge_0_4 -edge_0_3 -edge_0_2 -edge_0_1 -edge_0_0 -edge_0_8 gneE48 gneE49 gneE50 -gneE11 -gneE9 -gneE8 -gneE7 -gneE6 -gneE5 -gneE4 -gneE3 gneE3 gneE4 gneE5 gneE6 gneE7 gneE8 gneE9 gneE11 gneE47 edge_0_8 edge_0_0 edge_0_1 edge_0_2 edge_0_3 edge_0_4 edge_0_5 edge_0_6 -edge_0_6 -edge_0_5 -edge_0_4 -edge_0_3 -edge_0_2 -edge_0_1 -edge_0_0 -edge_0_8 gneE48 gneE49 gneE50 -gneE11 -gneE9 -gneE8 -gneE7 -gneE6 -gneE5 -gneE4 -gneE3 gneE3 gneE4 gneE5 gneE6 gneE7 gneE8 gneE9 gneE11 gneE47 edge_0_8 edge_0_0 edge_0_1 edge_0_2 edge_0_3 edge_0_4 edge_0_5 edge_0_6 -edge_0_6 -edge_0_5 -edge_0_4 -edge_0_3 -edge_0_2 -edge_0_1 -edge_0_0 -edge_0_8 gneE48 gneE49 gneE50 -gneE11 -gneE9 -gneE8 -gneE7 -gneE6 -gneE5 -gneE4 -gneE3 gneE3 gneE4 gneE5 gneE6 gneE7 gneE8 gneE9 gneE11 gneE47 edge_0_8 edge_0_0 edge_0_1 edge_0_2 edge_0_3 edge_0_4 "/>
   <route id="platoon_route_21" edges="-edge_0_6 -edge_0_5 -edge_0_4 -edge_0_3 -edge_0_2 -edge_0_1 -edge_0_0 -edge_0_8 gneE48 gneE49 gneE50 -gneE11 -gneE9 -gneE8 -gneE7 -gneE6 -gneE5 -gneE4 -gneE3 gneE3 gneE4 gneE5 gneE6 gneE7 gneE8 gneE9 gneE11 gneE47 edge_0_8 edge_0_0 edge_0_1 edge_0_2 edge_0_3 edge_0_4 edge_0_5 edge_0_6 -edge_0_6 -edge_0_5 -edge_0_4 -edge_0_3 -edge_0_2 -edge_0_1 -edge_0_0 -edge_0_8 gneE48 gneE49 gneE50 -gneE11 -gneE9 -gneE8 -gneE7 -gneE6 -gneE5 -gneE4 -gneE3 gneE3 gneE4 gneE5 gneE6 gneE7 gneE8 gneE9 gneE11 gneE47 edge_0_8 edge_0_0 edge_0_1 edge_0_2 edge_0_3 edge_0_4 edge_0_5 edge_0_6 -edge_0_6 -edge_0_5 -edge_0_4 -edge_0_3 -edge_0_2 -edge_0_1 -edge_0_0 -edge_0_8 gneE48 gneE49 gneE50 -gneE11 -gneE9 -gneE8 -gneE7 -gneE6 -gneE5 -gneE4 -gneE3 gneE3 gneE4 gneE5 gneE6 gneE7 gneE8 gneE9 gneE11 gneE47 edge_0_8 edge_0_0 edge_0_1 edge_0_2 edge_0_3 edge_0_4 edge_0_5 edge_0_6 -edge_0_6  "/>
   <route id="platoon_route_22" edges="-edge_0_4 -edge_0_3 -edge_0_2 -edge_0_1 -edge_0_0 -edge_0_8 gneE48 gneE49 gneE50 -gneE11 -gneE9 -gneE8 -gneE7 -gneE6 -gneE5 -gneE4 -gneE3 gneE3 gneE4 gneE5 gneE6 gneE7 gneE8 gneE9 gneE11 gneE47 edge_0_8 edge_0_0 edge_0_1 edge_0_2 edge_0_3 edge_0_4 edge_0_5 edge_0_6 -edge_0_6 -edge_0_5 -edge_0_4 -edge_0_3 -edge_0_2 -edge_0_1 -edge_0_0 -edge_0_8 gneE48 gneE49 gneE50 -gneE11 -gneE9 -gneE8 -gneE7 -gneE6 -gneE5 -gneE4 -gneE3 gneE3 gneE4 gneE5 gneE6 gneE7 gneE8 gneE9 gneE11 gneE47 edge_0_8 edge_0_0 edge_0_1 edge_0_2 edge_0_3 edge_0_4 edge_0_5 edge_0_6 -edge_0_6 -edge_0_5 -edge_0_4 -edge_0_3 -edge_0_2 -edge_0_1 -edge_0_0 -edge_0_8 gneE48 gneE49 gneE50 -gneE11 -gneE9 -gneE8 -gneE7 -gneE6 -gneE5 -gneE4 -gneE3 gneE3 gneE4 gneE5 gneE6 gneE7 gneE8 gneE9 gneE11 gneE47 edge_0_8 edge_0_0 edge_0_1 edge_0_2 edge_0_3 edge_0_4 edge_0_5 edge_0_6 -edge_0_6 -edge_0_5 -edge_0_4 "/>
   <route id="platoon_route_23" edges="-edge_0_2 -edge_0_1 -edge_0_0 -edge_0_8 gneE48 gneE49 gneE50 -gneE11 -gneE9 -gneE8 -gneE7 -gneE6 -gneE5 -gneE4 -gneE3 gneE3 gneE4 gneE5 gneE6 gneE7 gneE8 gneE9 gneE11 gneE47 edge_0_8 edge_0_0 edge_0_1 edge_0_2 edge_0_3 edge_0_4 edge_0_5 edge_0_6 -edge_0_6 -edge_0_5 -edge_0_4 -edge_0_3 -edge_0_2 -edge_0_1 -edge_0_0 -edge_0_8 gneE48 gneE49 gneE50 -gneE11 -gneE9 -gneE8 -gneE7 -gneE6 -gneE5 -gneE4 -gneE3 gneE3 gneE4 gneE5 gneE6 gneE7 gneE8 gneE9 gneE11 gneE47 edge_0_8 edge_0_0 edge_0_1 edge_0_2 edge_0_3 edge_0_4 edge_0_5 edge_0_6 -edge_0_6 -edge_0_5 -edge_0_4 -edge_0_3 -edge_0_2 -edge_0_1 -edge_0_0 -edge_0_8 gneE48 gneE49 gneE50 -gneE11 -gneE9 -gneE8 -gneE7 -gneE6 -gneE5 -gneE4 -gneE3 gneE3 gneE4 gneE5 gneE6 gneE7 gneE8 gneE9 gneE11 gneE47 edge_0_8 edge_0_0 edge_0_1 edge_0_2 edge_0_3 edge_0_4 edge_0_5 edge_0_6 -edge_0_6 -edge_0_5 -edge_0_4 -edge_0_3 -edge_0_2 "/>
   <route id="platoon_route_24" edges="-edge_0_0 -edge_0_8 gneE48 gneE49 gneE50 -gneE11 -gneE9 -gneE8 -gneE7 -gneE6 -gneE5 -gneE4 -gneE3 gneE3 gneE4 gneE5 gneE6 gneE7 gneE8 gneE9 gneE11 gneE47 edge_0_8 edge_0_0 edge_0_1 edge_0_2 edge_0_3 edge_0_4 edge_0_5 edge_0_6 -edge_0_6 -edge_0_5 -edge_0_4 -edge_0_3 -edge_0_2 -edge_0_1 -edge_0_0 -edge_0_8 gneE48 gneE49 gneE50 -gneE11 -gneE9 -gneE8 -gneE7 -gneE6 -gneE5 -gneE4 -gneE3 gneE3 gneE4 gneE5 gneE6 gneE7 gneE8 gneE9 gneE11 gneE47 edge_0_8 edge_0_0 edge_0_1 edge_0_2 edge_0_3 edge_0_4 edge_0_5 edge_0_6 -edge_0_6 -edge_0_5 -edge_0_4 -edge_0_3 -edge_0_2 -edge_0_1 -edge_0_0 -edge_0_8 gneE48 gneE49 gneE50 -gneE11 -gneE9 -gneE8 -gneE7 -gneE6 -gneE5 -gneE4 -gneE3 gneE3 gneE4 gneE5 gneE6 gneE7 gneE8 gneE9 gneE11 gneE47 edge_0_8 edge_0_0 edge_0_1 edge_0_2 edge_0_3 edge_0_4 edge_0_5 edge_0_6 -edge_0_6 -edge_0_5 -edge_0_4 -edge_0_3 -edge_0_2 -edge_0_1 -edge_0_0"/>
	<route id="platoon_route_25" edges="gneE3 gneE4 gneE5 gneE6 gneE7 gneE8 gneE9 gneE11 gneE47 edge_0_8 edge_0_0 edge_0_1 edge_0_2 edge_0_3 edge_0_4 edge_0_5 edge_0_6 -edge_0_6 -edge_0_5 -edge_0_4 -edge_0_3 -edge_0_2 -edge_0_1 -edge_0_0 -edge_0_8 gneE48 gneE49 gneE50 -gneE11 -gneE9 -gneE8 -gneE7 -gneE6 -gneE5 -gneE4 -gneE3 gneE3 gneE4 gneE5 gneE6 gneE7 gneE8 gneE9 gneE11 gneE47 edge_0_8 edge_0_0 edge_0_1 edge_0_2 edge_0_3 edge_0_4 edge_0_5 edge_0_6 -edge_0_6 -edge_0_5 -edge_0_4 -edge_0_3 -edge_0_2 -edge_0_1 -edge_0_0 -edge_0_8 gneE48 gneE49 gneE50 -gneE11 -gneE9 -gneE8 -gneE7 -gneE6 -gneE5 -gneE4 -gneE3 gneE3 gneE4 gneE5 gneE6 gneE7 gneE8 gneE9 gneE11 gneE47 edge_0_8 edge_0_0 edge_0_1 edge_0_2 edge_0_3 edge_0_4 edge_0_5 edge_0_6 -edge_0_6 -edge_0_5 -edge_0_4 -edge_0_3 -edge_0_2 -edge_0_1 -edge_0_0 -edge_0_8 gneE48 gneE49 gneE50 -gneE11 -gneE9 -gneE8 -gneE7 -gneE6 -gneE5 -gneE4 -gneE3 "/>
	<route id="platoon_route_26" edges="gneE5 gneE6 gneE7 gneE8 gneE9 gneE11 gneE47 edge_0_8 edge_0_0 edge_0_1 edge_0_2 edge_0_3 edge_0_4 edge_0_5 edge_0_6 -edge_0_6 -edge_0_5 -edge_0_4 -edge_0_3 -edge_0_2 -edge_0_1 -edge_0_0 -edge_0_8 gneE48 gneE49 gneE50 -gneE11 -gneE9 -gneE8 -gneE7 -gneE6 -gneE5 -gneE4 -gneE3 gneE3 gneE4 gneE5 gneE6 gneE7 gneE8 gneE9 gneE11 gneE47 edge_0_8 edge_0_0 edge_0_1 edge_0_2 edge_0_3 edge_0_4 edge_0_5 edge_0_6 -edge_0_6 -edge_0_5 -edge_0_4 -edge_0_3 -edge_0_2 -edge_0_1 -edge_0_0 -edge_0_8 gneE48 gneE49 gneE50 -gneE11 -gneE9 -gneE8 -gneE7 -gneE6 -gneE5 -gneE4 -gneE3 gneE3 gneE4 gneE5 gneE6 gneE7 gneE8 gneE9 gneE11 gneE47 edge_0_8 edge_0_0 edge_0_1 edge_0_2 edge_0_3 edge_0_4 edge_0_5 edge_0_6 -edge_0_6 -edge_0_5 -edge_0_4 -edge_0_3 -edge_0_2 -edge_0_1 -edge_0_0 -edge_0_8 gneE48 gneE49 gneE50 -gneE11 -gneE9 -gneE8 -gneE7 -gneE6 -gneE5 -gneE4 -gneE3 gneE3 gneE4 "/>
	<route id="platoon_route_27" edges="gneE7 gneE8 gneE9 gneE11 gneE47 edge_0_8 edge_0_0 edge_0_1 edge_0_2 edge_0_3 edge_0_4 edge_0_5 edge_0_6 -edge_0_6 -edge_0_5 -edge_0_4 -edge_0_3 -edge_0_2 -edge_0_1 -edge_0_0 -edge_0_8 gneE48 gneE49 gneE50 -gneE11 -gneE9 -gneE8 -gneE7 -gneE6 -gneE5 -gneE4 -gneE3 gneE3 gneE4 gneE5 gneE6 gneE7 gneE8 gneE9 gneE11 gneE47 edge_0_8 edge_0_0 edge_0_1 edge_0_2 edge_0_3 edge_0_4 edge_0_5 edge_0_6 -edge_0_6 -edge_0_5 -edge_0_4 -edge_0_3 -edge_0_2 -edge_0_1 -edge_0_0 -edge_0_8 gneE48 gneE49 gneE50 -gneE11 -gneE9 -gneE8 -gneE7 -gneE6 -gneE5 -gneE4 -gneE3 gneE3 gneE4 gneE5 gneE6 gneE7 gneE8 gneE9 gneE11 gneE47 edge_0_8 edge_0_0 edge_0_1 edge_0_2 edge_0_3 edge_0_4 edge_0_5 edge_0_6 -edge_0_6 -edge_0_5 -edge_0_4 -edge_0_3 -edge_0_2 -edge_0_1 -edge_0_0 -edge_0_8 gneE48 gneE49 gneE50 -gneE11 -gneE9 -gneE8 -gneE7 -gneE6 -gneE5 -gneE4 -gneE3 gneE3 gneE4 gneE5 gneE6 "/>
	<route id="platoon_route_28" edges="gneE9 gneE11 gneE47 edge_0_8 edge_0_0 edge_0_1 edge_0_2 edge_0_3 edge_0_4 edge_0_5 edge_0_6 -edge_0_6 -edge_0_5 -edge_0_4 -edge_0_3 -edge_0_2 -edge_0_1 -edge_0_0 -edge_0_8 gneE48 gneE49 gneE50 -gneE11 -gneE9 -gneE8 -gneE7 -gneE6 -gneE5 -gneE4 -gneE3 gneE3 gneE4 gneE5 gneE6 gneE7 gneE8 gneE9 gneE11 gneE47 edge_0_8 edge_0_0 edge_0_1 edge_0_2 edge_0_3 edge_0_4 edge_0_5 edge_0_6 -edge_0_6 -edge_0_5 -edge_0_4 -edge_0_3 -edge_0_2 -edge_0_1 -edge_0_0 -edge_0_8 gneE48 gneE49 gneE50 -gneE11 -gneE9 -gneE8 -gneE7 -gneE6 -gneE5 -gneE4 -gneE3 gneE3 gneE4 gneE5 gneE6 gneE7 gneE8 gneE9 gneE11 gneE47 edge_0_8 edge_0_0 edge_0_1 edge_0_2 edge_0_3 edge_0_4 edge_0_5 edge_0_6 -edge_0_6 -edge_0_5 -edge_0_4 -edge_0_3 -edge_0_2 -edge_0_1 -edge_0_0 -edge_0_8 gneE48 gneE49 gneE50 -gneE11 -gneE9 -gneE8 -gneE7 -gneE6 -gneE5 -gneE4 -gneE3 gneE3 gneE4 gneE5 gneE6 gneE7 gneE8 "/>
	<route id="platoon_route_29" edges="-gneE11 -gneE9 -gneE8 -gneE7 -gneE6 -gneE5 -gneE4 -gneE3 gneE3 gneE4 gneE5 gneE6 gneE7 gneE8 gneE9 gneE11 gneE47 edge_0_8 edge_0_0 edge_0_1 edge_0_2 edge_0_3 edge_0_4 edge_0_5 edge_0_6 -edge_0_6 -edge_0_5 -edge_0_4 -edge_0_3 -edge_0_2 -edge_0_1 -edge_0_0 -edge_0_8 gneE48 gneE49 gneE50 -gneE11 -gneE9 -gneE8 -gneE7 -gneE6 -gneE5 -gneE4 -gneE3 gneE3 gneE4 gneE5 gneE6 gneE7 gneE8 gneE9 gneE11 gneE47 edge_0_8 edge_0_0 edge_0_1 edge_0_2 edge_0_3 edge_0_4 edge_0_5 edge_0_6 -edge_0_6 -edge_0_5 -edge_0_4 -edge_0_3 -edge_0_2 -edge_0_1 -edge_0_0 -edge_0_8 gneE48 gneE49 gneE50 -gneE11 -gneE9 -gneE8 -gneE7 -gneE6 -gneE5 -gneE4 -gneE3 gneE3 gneE4 gneE5 gneE6 gneE7 gneE8 gneE9 gneE11 gneE47 edge_0_8 edge_0_0 edge_0_1 edge_0_2 edge_0_3 edge_0_4 edge_0_5 edge_0_6 -edge_0_6 -edge_0_5 -edge_0_4 -edge_0_3 -edge_0_2 -edge_0_1 -edge_0_0 -edge_0_8 gneE48 gneE49 gneE50 -gneE11 "/>
	<route id="platoon_route_30" edges="-gneE8 -gneE7 -gneE6 -gneE5 -gneE4 -gneE3 gneE3 gneE4 gneE5 gneE6 gneE7 gneE8 gneE9 gneE11 gneE47 edge_0_8 edge_0_0 edge_0_1 edge_0_2 edge_0_3 edge_0_4 edge_0_5 edge_0_6 -edge_0_6 -edge_0_5 -edge_0_4 -edge_0_3 -edge_0_2 -edge_0_1 -edge_0_0 -edge_0_8 gneE48 gneE49 gneE50 -gneE11 -gneE9 -gneE8 -gneE7 -gneE6 -gneE5 -gneE4 -gneE3 gneE3 gneE4 gneE5 gneE6 gneE7 gneE8 gneE9 gneE11 gneE47 edge_0_8 edge_0_0 edge_0_1 edge_0_2 edge_0_3 edge_0_4 edge_0_5 edge_0_6 -edge_0_6 -edge_0_5 -edge_0_4 -edge_0_3 -edge_0_2 -edge_0_1 -edge_0_0 -edge_0_8 gneE48 gneE49 gneE50 -gneE11 -gneE9 -gneE8 -gneE7 -gneE6 -gneE5 -gneE4 -gneE3 gneE3 gneE4 gneE5 gneE6 gneE7 gneE8 gneE9 gneE11 gneE47 edge_0_8 edge_0_0 edge_0_1 edge_0_2 edge_0_3 edge_0_4 edge_0_5 edge_0_6 -edge_0_6 -edge_0_5 -edge_0_4 -edge_0_3 -edge_0_2 -edge_0_1 -edge_0_0 -edge_0_8 gneE48 gneE49 gneE50 -gneE11 -gneE9 -gneE8 "/>
	<route id="platoon_route_31" edges="-gneE6 -gneE5 -gneE4 -gneE3 gneE3 gneE4 gneE5 gneE6 gneE7 gneE8 gneE9 gneE11 gneE47 edge_0_8 edge_0_0 edge_0_1 edge_0_2 edge_0_3 edge_0_4 edge_0_5 edge_0_6 -edge_0_6 -edge_0_5 -edge_0_4 -edge_0_3 -edge_0_2 -edge_0_1 -edge_0_0 -edge_0_8 gneE48 gneE49 gneE50 -gneE11 -gneE9 -gneE8 -gneE7 -gneE6 -gneE5 -gneE4 -gneE3 gneE3 gneE4 gneE5 gneE6 gneE7 gneE8 gneE9 gneE11 gneE47 edge_0_8 edge_0_0 edge_0_1 edge_0_2 edge_0_3 edge_0_4 edge_0_5 edge_0_6 -edge_0_6 -edge_0_5 -edge_0_4 -edge_0_3 -edge_0_2 -edge_0_1 -edge_0_0 -edge_0_8 gneE48 gneE49 gneE50 -gneE11 -gneE9 -gneE8 -gneE7 -gneE6 -gneE5 -gneE4 -gneE3 gneE3 gneE4 gneE5 gneE6 gneE7 gneE8 gneE9 gneE11 gneE47 edge_0_8 edge_0_0 edge_0_1 edge_0_2 edge_0_3 edge_0_4 edge_0_5 edge_0_6 -edge_0_6 -edge_0_5 -edge_0_4 -edge_0_3 -edge_0_2 -edge_0_1 -edge_0_0 -edge_0_8 gneE48 gneE49 gneE50 -gneE11 -gneE9 -gneE8 -gneE7 -gneE6 "/>
	<route id="platoon_route_32" edges="-gneE4 -gneE3 gneE3 gneE4 gneE5 gneE6 gneE7 gneE8 gneE9 gneE11 gneE47 edge_0_8 edge_0_0 edge_0_1 edge_0_2 edge_0_3 edge_0_4 edge_0_5 edge_0_6 -edge_0_6 -edge_0_5 -edge_0_4 -edge_0_3 -edge_0_2 -edge_0_1 -edge_0_0 -edge_0_8 gneE48 gneE49 gneE50 -gneE11 -gneE9 -gneE8 -gneE7 -gneE6 -gneE5 -gneE4 -gneE3 gneE3 gneE4 gneE5 gneE6 gneE7 gneE8 gneE9 gneE11 gneE47 edge_0_8 edge_0_0 edge_0_1 edge_0_2 edge_0_3 edge_0_4 edge_0_5 edge_0_6 -edge_0_6 -edge_0_5 -edge_0_4 -edge_0_3 -edge_0_2 -edge_0_1 -edge_0_0 -edge_0_8 gneE48 gneE49 gneE50 -gneE11 -gneE9 -gneE8 -gneE7 -gneE6 -gneE5 -gneE4 -gneE3 gneE3 gneE4 gneE5 gneE6 gneE7 gneE8 gneE9 gneE11 gneE47 edge_0_8 edge_0_0 edge_0_1 edge_0_2 edge_0_3 edge_0_4 edge_0_5 edge_0_6 -edge_0_6 -edge_0_5 -edge_0_4 -edge_0_3 -edge_0_2 -edge_0_1 -edge_0_0 -edge_0_8 gneE48 gneE49 gneE50 -gneE11 -gneE9 -gneE8 -gneE7 -gneE6 -gneE5 -gneE4 "/>

	<route id="leaver_route" edges=" gneE14 gneE51 gneE5 gneE6 gneE7 gneE8 gneE9 gneE11 gneE47 gneE33 gneE34 gneE35 edge_0_1 edge_0_2 edge_0_3 edge_0_4 edge_0_5 edge_0_6 gneE41"/>

</routes>
