<?xml version="1.0" encoding="UTF-8"?>

<!-- generated on 05/29/17 16:26:58 by SUMO gui Version 0.26.0
<?xml version="1.0" encoding="UTF-8"?>

<configuration xmlns:xsi="http://www.w3.org/2001/XMLSchema-instance" xsi:noNamespaceSchemaLocation="http://sumo.dlr.de/xsd/sumo-gui.exeConfiguration.xsd">

    <input>
        <net-file value="./sumocfg/dup_freeway.net.xml"/>
        <route-files value="./sumocfg/freeway.rou.xml"/>
        <additional-files value="./sumocfg/freeway.add.xml"/>
    </input>

    <time>
        <begin value="0"/>
        <end value="1e9"/>
        <step-length value="0.01"/>
    </time>

    <processing>
        <time-to-teleport value="-1"/>
    </processing>

    <traci_server>
        <remote-port value="57498"/>
    </traci_server>

    <random_number>
        <seed value="0"/>
    </random_number>

</configuration>
-->

<instantE1>
    <instantOut id="insDetector_-edge_0_8_2" time="0.12" state="stay" vehID="vtypeauto.23" speed="13.89" length="4.00" type="vtypeauto"/>
    <instantOut id="insDetector_-edge_0_8_2" time="0.13" state="stay" vehID="vtypeauto.23" speed="13.89" length="4.00" type="vtypeauto"/>
    <instantOut id="insDetector_-edge_0_8_2" time="0.14" state="stay" vehID="vtypeauto.23" speed="13.89" length="4.00" type="vtypeauto"/>
    <instantOut id="insDetector_-edge_0_8_2" time="0.15" state="stay" vehID="vtypeauto.23" speed="13.89" length="4.00" type="vtypeauto"/>
   <interval begin="0.00" end="1.00" id="e1Detector_gneE14_0_5" nVehContrib="0" flow="0.00" occupancy="0.00" speed="-1.00" length="-1.00" nVehEntered="0"/>
   <interval begin="0.00" end="1.00" id="e1Detector_gneE34_0_2" nVehContrib="0" flow="0.00" occupancy="0.00" speed="-1.00" length="-1.00" nVehEntered="0"/>
   <interval begin="0.00" end="1.00" id="e1Detector_gneE34_0_3" nVehContrib="0" flow="0.00" occupancy="0.00" speed="-1.00" length="-1.00" nVehEntered="0"/>
   <interval begin="0.00" end="1.00" id="e1Detector_gneE41_0_3" nVehContrib="0" flow="0.00" occupancy="0.00" speed="-1.00" length="-1.00" nVehEntered="0"/>
   <interval begin="1.00" end="2.00" id="e1Detector_gneE14_0_5" nVehContrib="0" flow="0.00" occupancy="0.00" speed="-1.00" length="-1.00" nVehEntered="0"/>
   <interval begin="1.00" end="2.00" id="e1Detector_gneE34_0_2" nVehContrib="0" flow="0.00" occupancy="0.00" speed="-1.00" length="-1.00" nVehEntered="0"/>
   <interval begin="1.00" end="2.00" id="e1Detector_gneE34_0_3" nVehContrib="0" flow="0.00" occupancy="0.00" speed="-1.00" length="-1.00" nVehEntered="0"/>
   <interval begin="1.00" end="2.00" id="e1Detector_gneE41_0_3" nVehContrib="0" flow="0.00" occupancy="0.00" speed="-1.00" length="-1.00" nVehEntered="0"/>
    <instantOut id="insDetector_-edge_0_8_1" time="2.63" state="enter" vehID="vtypeauto.55" speed="13.89" length="4.00" type="vtypeauto"/>
    <instantOut id="insDetector_-edge_0_8_1" time="2.63" state="stay" vehID="vtypeauto.55" speed="13.89" length="4.00" type="vtypeauto"/>
    <instantOut id="insDetector_-edge_0_8_1" time="2.64" state="stay" vehID="vtypeauto.55" speed="13.89" length="4.00" type="vtypeauto"/>
    <instantOut id="insDetector_-edge_0_8_1" time="2.65" state="stay" vehID="vtypeauto.55" speed="13.89" length="4.00" type="vtypeauto"/>
    <instantOut id="insDetector_-edge_0_8_1" time="2.66" state="stay" vehID="vtypeauto.55" speed="13.89" length="4.00" type="vtypeauto"/>
    <instantOut id="insDetector_-edge_0_8_1" time="2.67" state="stay" vehID="vtypeauto.55" speed="13.89" length="4.00" type="vtypeauto"/>
    <instantOut id="insDetector_-edge_0_8_1" time="2.68" state="stay" vehID="vtypeauto.55" speed="13.89" length="4.00" type="vtypeauto"/>
    <instantOut id="insDetector_-edge_0_8_1" time="2.69" state="stay" vehID="vtypeauto.55" speed="13.89" length="4.00" type="vtypeauto"/>
    <instantOut id="insDetector_-edge_0_8_1" time="2.70" state="stay" vehID="vtypeauto.55" speed="13.89" length="4.00" type="vtypeauto"/>
    <instantOut id="insDetector_-edge_0_8_1" time="2.71" state="stay" vehID="vtypeauto.55" speed="13.89" length="4.00" type="vtypeauto"/>
    <instantOut id="insDetector_-edge_0_8_1" time="2.72" state="stay" vehID="vtypeauto.55" speed="13.89" length="4.00" type="vtypeauto"/>
    <instantOut id="insDetector_-edge_0_8_1" time="2.73" state="stay" vehID="vtypeauto.55" speed="13.89" length="4.00" type="vtypeauto"/>
    <instantOut id="insDetector_-edge_0_8_1" time="2.74" state="stay" vehID="vtypeauto.55" speed="13.89" length="4.00" type="vtypeauto"/>
    <instantOut id="insDetector_-edge_0_8_1" time="2.75" state="stay" vehID="vtypeauto.55" speed="13.89" length="4.00" type="vtypeauto"/>
    <instantOut id="insDetector_-edge_0_8_1" time="2.76" state="stay" vehID="vtypeauto.55" speed="13.89" length="4.00" type="vtypeauto"/>
    <instantOut id="insDetector_-edge_0_8_1" time="2.77" state="stay" vehID="vtypeauto.55" speed="13.89" length="4.00" type="vtypeauto"/>
    <instantOut id="insDetector_-edge_0_8_1" time="2.78" state="stay" vehID="vtypeauto.55" speed="13.89" length="4.00" type="vtypeauto"/>
    <instantOut id="insDetector_-edge_0_8_1" time="2.79" state="stay" vehID="vtypeauto.55" speed="13.89" length="4.00" type="vtypeauto"/>
    <instantOut id="insDetector_-edge_0_8_1" time="2.80" state="stay" vehID="vtypeauto.55" speed="13.89" length="4.00" type="vtypeauto"/>
    <instantOut id="insDetector_-edge_0_8_1" time="2.81" state="stay" vehID="vtypeauto.55" speed="13.89" length="4.00" type="vtypeauto"/>
    <instantOut id="insDetector_-edge_0_8_1" time="2.82" state="stay" vehID="vtypeauto.55" speed="13.89" length="4.00" type="vtypeauto"/>
    <instantOut id="insDetector_-edge_0_8_1" time="2.83" state="stay" vehID="vtypeauto.55" speed="13.89" length="4.00" type="vtypeauto"/>
    <instantOut id="insDetector_-edge_0_8_1" time="2.84" state="stay" vehID="vtypeauto.55" speed="13.89" length="4.00" type="vtypeauto"/>
    <instantOut id="insDetector_-edge_0_8_1" time="2.85" state="stay" vehID="vtypeauto.55" speed="13.89" length="4.00" type="vtypeauto"/>
    <instantOut id="insDetector_-edge_0_8_1" time="2.86" state="stay" vehID="vtypeauto.55" speed="13.89" length="4.00" type="vtypeauto"/>
    <instantOut id="insDetector_-edge_0_8_1" time="2.87" state="stay" vehID="vtypeauto.55" speed="13.89" length="4.00" type="vtypeauto"/>
    <instantOut id="insDetector_-edge_0_8_1" time="2.88" state="stay" vehID="vtypeauto.55" speed="13.89" length="4.00" type="vtypeauto"/>
    <instantOut id="insDetector_-edge_0_8_1" time="2.89" state="stay" vehID="vtypeauto.55" speed="13.89" length="4.00" type="vtypeauto"/>
    <instantOut id="insDetector_-edge_0_8_1" time="2.90" state="stay" vehID="vtypeauto.55" speed="13.89" length="4.00" type="vtypeauto"/>
    <instantOut id="insDetector_-edge_0_8_1" time="2.91" state="stay" vehID="vtypeauto.55" speed="13.89" length="4.00" type="vtypeauto"/>
    <instantOut id="insDetector_-edge_0_8_1" time="2.92" state="leave" vehID="vtypeauto.55" speed="13.89" length="4.00" type="vtypeauto" occupancy="0.29"/>
    <instantOut id="insDetector_gneE11_1" time="2.94" state="enter" vehID="vtypeauto.59" speed="13.89" length="4.00" type="vtypeauto"/>
    <instantOut id="insDetector_gneE11_1" time="2.94" state="stay" vehID="vtypeauto.59" speed="13.89" length="4.00" type="vtypeauto"/>
    <instantOut id="insDetector_gneE11_1" time="2.95" state="stay" vehID="vtypeauto.59" speed="13.89" length="4.00" type="vtypeauto"/>
    <instantOut id="insDetector_gneE11_1" time="2.96" state="stay" vehID="vtypeauto.59" speed="13.89" length="4.00" type="vtypeauto"/>
    <instantOut id="insDetector_gneE11_1" time="2.97" state="stay" vehID="vtypeauto.59" speed="13.89" length="4.00" type="vtypeauto"/>
    <instantOut id="insDetector_gneE11_1" time="2.98" state="stay" vehID="vtypeauto.59" speed="13.89" length="4.00" type="vtypeauto"/>
    <instantOut id="insDetector_gneE11_1" time="2.99" state="stay" vehID="vtypeauto.59" speed="13.89" length="4.00" type="vtypeauto"/>
    <instantOut id="insDetector_gneE11_1" time="3.00" state="stay" vehID="vtypeauto.59" speed="13.89" length="4.00" type="vtypeauto"/>
   <interval begin="2.00" end="3.00" id="e1Detector_gneE14_0_5" nVehContrib="0" flow="0.00" occupancy="0.00" speed="-1.00" length="-1.00" nVehEntered="0"/>
   <interval begin="2.00" end="3.00" id="e1Detector_gneE34_0_2" nVehContrib="0" flow="0.00" occupancy="0.00" speed="-1.00" length="-1.00" nVehEntered="0"/>
   <interval begin="2.00" end="3.00" id="e1Detector_gneE34_0_3" nVehContrib="0" flow="0.00" occupancy="0.00" speed="-1.00" length="-1.00" nVehEntered="0"/>
   <interval begin="2.00" end="3.00" id="e1Detector_gneE41_0_3" nVehContrib="0" flow="0.00" occupancy="0.00" speed="-1.00" length="-1.00" nVehEntered="0"/>
    <instantOut id="insDetector_gneE11_1" time="3.01" state="stay" vehID="vtypeauto.59" speed="13.89" length="4.00" type="vtypeauto"/>
    <instantOut id="insDetector_gneE11_1" time="3.02" state="stay" vehID="vtypeauto.59" speed="13.89" length="4.00" type="vtypeauto"/>
    <instantOut id="insDetector_gneE11_1" time="3.03" state="stay" vehID="vtypeauto.59" speed="13.89" length="4.00" type="vtypeauto"/>
    <instantOut id="insDetector_gneE11_1" time="3.04" state="stay" vehID="vtypeauto.59" speed="13.89" length="4.00" type="vtypeauto"/>
    <instantOut id="insDetector_gneE11_1" time="3.05" state="stay" vehID="vtypeauto.59" speed="13.89" length="4.00" type="vtypeauto"/>
    <instantOut id="insDetector_gneE11_1" time="3.06" state="stay" vehID="vtypeauto.59" speed="13.89" length="4.00" type="vtypeauto"/>
    <instantOut id="insDetector_gneE11_1" time="3.07" state="stay" vehID="vtypeauto.59" speed="13.89" length="4.00" type="vtypeauto"/>
    <instantOut id="insDetector_gneE11_1" time="3.08" state="stay" vehID="vtypeauto.59" speed="13.89" length="4.00" type="vtypeauto"/>
    <instantOut id="insDetector_gneE11_1" time="3.09" state="stay" vehID="vtypeauto.59" speed="13.89" length="4.00" type="vtypeauto"/>
    <instantOut id="insDetector_gneE11_1" time="3.10" state="stay" vehID="vtypeauto.59" speed="13.89" length="4.00" type="vtypeauto"/>
    <instantOut id="insDetector_gneE11_1" time="3.11" state="stay" vehID="vtypeauto.59" speed="13.89" length="4.00" type="vtypeauto"/>
    <instantOut id="insDetector_gneE11_1" time="3.12" state="stay" vehID="vtypeauto.59" speed="13.89" length="4.00" type="vtypeauto"/>
    <instantOut id="insDetector_gneE11_1" time="3.13" state="stay" vehID="vtypeauto.59" speed="13.88" length="4.00" type="vtypeauto"/>
    <instantOut id="insDetector_gneE11_1" time="3.14" state="stay" vehID="vtypeauto.59" speed="13.88" length="4.00" type="vtypeauto"/>
    <instantOut id="insDetector_gneE11_1" time="3.15" state="stay" vehID="vtypeauto.59" speed="13.88" length="4.00" type="vtypeauto"/>
    <instantOut id="insDetector_gneE11_1" time="3.16" state="stay" vehID="vtypeauto.59" speed="13.88" length="4.00" type="vtypeauto"/>
    <instantOut id="insDetector_gneE11_1" time="3.17" state="stay" vehID="vtypeauto.59" speed="13.88" length="4.00" type="vtypeauto"/>
    <instantOut id="insDetector_gneE11_1" time="3.18" state="stay" vehID="vtypeauto.59" speed="13.87" length="4.00" type="vtypeauto"/>
    <instantOut id="insDetector_gneE11_1" time="3.19" state="stay" vehID="vtypeauto.59" speed="13.87" length="4.00" type="vtypeauto"/>
    <instantOut id="insDetector_gneE11_1" time="3.20" state="stay" vehID="vtypeauto.59" speed="13.87" length="4.00" type="vtypeauto"/>
    <instantOut id="insDetector_gneE11_1" time="3.21" state="stay" vehID="vtypeauto.59" speed="13.86" length="4.00" type="vtypeauto"/>
    <instantOut id="insDetector_gneE11_1" time="3.22" state="stay" vehID="vtypeauto.59" speed="13.86" length="4.00" type="vtypeauto"/>
    <instantOut id="insDetector_gneE11_1" time="3.23" state="leave" vehID="vtypeauto.59" speed="13.86" length="4.00" type="vtypeauto" occupancy="0.29"/>
   <interval begin="3.00" end="4.00" id="e1Detector_gneE14_0_5" nVehContrib="0" flow="0.00" occupancy="0.00" speed="-1.00" length="-1.00" nVehEntered="0"/>
   <interval begin="3.00" end="4.00" id="e1Detector_gneE34_0_2" nVehContrib="0" flow="0.00" occupancy="0.00" speed="-1.00" length="-1.00" nVehEntered="0"/>
   <interval begin="3.00" end="4.00" id="e1Detector_gneE34_0_3" nVehContrib="0" flow="0.00" occupancy="0.00" speed="-1.00" length="-1.00" nVehEntered="0"/>
   <interval begin="3.00" end="4.00" id="e1Detector_gneE41_0_3" nVehContrib="0" flow="0.00" occupancy="0.00" speed="-1.00" length="-1.00" nVehEntered="0"/>
   <interval begin="4.00" end="5.00" id="e1Detector_gneE14_0_5" nVehContrib="0" flow="0.00" occupancy="0.00" speed="-1.00" length="-1.00" nVehEntered="0"/>
   <interval begin="4.00" end="5.00" id="e1Detector_gneE34_0_2" nVehContrib="0" flow="0.00" occupancy="0.00" speed="-1.00" length="-1.00" nVehEntered="0"/>
   <interval begin="4.00" end="5.00" id="e1Detector_gneE34_0_3" nVehContrib="0" flow="0.00" occupancy="0.00" speed="-1.00" length="-1.00" nVehEntered="0"/>
   <interval begin="4.00" end="5.00" id="e1Detector_gneE41_0_3" nVehContrib="0" flow="0.00" occupancy="0.00" speed="-1.00" length="-1.00" nVehEntered="0"/>
    <instantOut id="insDetector_-edge_0_8_1" time="5.71" state="enter" vehID="vtypeauto.21" speed="13.97" length="4.00" type="vtypeauto" gap="2.80"/>
    <instantOut id="insDetector_-edge_0_8_1" time="5.72" state="stay" vehID="vtypeauto.21" speed="13.97" length="4.00" type="vtypeauto"/>
    <instantOut id="insDetector_-edge_0_8_1" time="5.73" state="stay" vehID="vtypeauto.21" speed="13.97" length="4.00" type="vtypeauto"/>
    <instantOut id="insDetector_-edge_0_8_1" time="5.74" state="stay" vehID="vtypeauto.21" speed="13.97" length="4.00" type="vtypeauto"/>
    <instantOut id="insDetector_gneE11_1" time="5.75" state="enter" vehID="vtypeauto.33" speed="13.89" length="4.00" type="vtypeauto" gap="2.52"/>
    <instantOut id="insDetector_gneE11_1" time="5.75" state="stay" vehID="vtypeauto.33" speed="13.89" length="4.00" type="vtypeauto"/>
    <instantOut id="insDetector_-edge_0_8_1" time="5.75" state="stay" vehID="vtypeauto.21" speed="13.97" length="4.00" type="vtypeauto"/>
    <instantOut id="insDetector_gneE11_1" time="5.76" state="stay" vehID="vtypeauto.33" speed="13.89" length="4.00" type="vtypeauto"/>
    <instantOut id="insDetector_-edge_0_8_1" time="5.76" state="stay" vehID="vtypeauto.21" speed="13.97" length="4.00" type="vtypeauto"/>
    <instantOut id="insDetector_gneE11_1" time="5.77" state="stay" vehID="vtypeauto.33" speed="13.89" length="4.00" type="vtypeauto"/>
    <instantOut id="insDetector_-edge_0_8_1" time="5.77" state="stay" vehID="vtypeauto.21" speed="13.97" length="4.00" type="vtypeauto"/>
    <instantOut id="insDetector_gneE11_1" time="5.78" state="stay" vehID="vtypeauto.33" speed="13.89" length="4.00" type="vtypeauto"/>
    <instantOut id="insDetector_-edge_0_8_1" time="5.78" state="stay" vehID="vtypeauto.21" speed="13.97" length="4.00" type="vtypeauto"/>
    <instantOut id="insDetector_gneE11_1" time="5.79" state="stay" vehID="vtypeauto.33" speed="13.89" length="4.00" type="vtypeauto"/>
    <instantOut id="insDetector_-edge_0_8_1" time="5.79" state="stay" vehID="vtypeauto.21" speed="13.97" length="4.00" type="vtypeauto"/>
    <instantOut id="insDetector_gneE11_1" time="5.80" state="stay" vehID="vtypeauto.33" speed="13.89" length="4.00" type="vtypeauto"/>
    <instantOut id="insDetector_-edge_0_8_1" time="5.80" state="stay" vehID="vtypeauto.21" speed="13.97" length="4.00" type="vtypeauto"/>
    <instantOut id="insDetector_gneE11_1" time="5.81" state="stay" vehID="vtypeauto.33" speed="13.89" length="4.00" type="vtypeauto"/>
    <instantOut id="insDetector_-edge_0_8_1" time="5.81" state="stay" vehID="vtypeauto.21" speed="13.97" length="4.00" type="vtypeauto"/>
    <instantOut id="insDetector_gneE11_1" time="5.82" state="stay" vehID="vtypeauto.33" speed="13.89" length="4.00" type="vtypeauto"/>
    <instantOut id="insDetector_-edge_0_8_1" time="5.82" state="stay" vehID="vtypeauto.21" speed="13.97" length="4.00" type="vtypeauto"/>
    <instantOut id="insDetector_gneE11_1" time="5.83" state="stay" vehID="vtypeauto.33" speed="13.89" length="4.00" type="vtypeauto"/>
    <instantOut id="insDetector_-edge_0_8_1" time="5.83" state="stay" vehID="vtypeauto.21" speed="13.97" length="4.00" type="vtypeauto"/>
    <instantOut id="insDetector_gneE11_1" time="5.84" state="stay" vehID="vtypeauto.33" speed="13.89" length="4.00" type="vtypeauto"/>
    <instantOut id="insDetector_-edge_0_8_1" time="5.84" state="stay" vehID="vtypeauto.21" speed="13.97" length="4.00" type="vtypeauto"/>
    <instantOut id="insDetector_gneE11_1" time="5.85" state="stay" vehID="vtypeauto.33" speed="13.89" length="4.00" type="vtypeauto"/>
    <instantOut id="insDetector_-edge_0_8_1" time="5.85" state="stay" vehID="vtypeauto.21" speed="13.97" length="4.00" type="vtypeauto"/>
    <instantOut id="insDetector_gneE11_1" time="5.86" state="stay" vehID="vtypeauto.33" speed="13.89" length="4.00" type="vtypeauto"/>
    <instantOut id="insDetector_-edge_0_8_1" time="5.86" state="stay" vehID="vtypeauto.21" speed="13.97" length="4.00" type="vtypeauto"/>
    <instantOut id="insDetector_gneE11_1" time="5.87" state="stay" vehID="vtypeauto.33" speed="13.89" length="4.00" type="vtypeauto"/>
    <instantOut id="insDetector_-edge_0_8_1" time="5.87" state="stay" vehID="vtypeauto.21" speed="13.97" length="4.00" type="vtypeauto"/>
    <instantOut id="insDetector_gneE11_1" time="5.88" state="stay" vehID="vtypeauto.33" speed="13.89" length="4.00" type="vtypeauto"/>
    <instantOut id="insDetector_-edge_0_8_1" time="5.88" state="stay" vehID="vtypeauto.21" speed="13.97" length="4.00" type="vtypeauto"/>
    <instantOut id="insDetector_gneE11_1" time="5.89" state="stay" vehID="vtypeauto.33" speed="13.89" length="4.00" type="vtypeauto"/>
    <instantOut id="insDetector_-edge_0_8_1" time="5.89" state="stay" vehID="vtypeauto.21" speed="13.97" length="4.00" type="vtypeauto"/>
    <instantOut id="insDetector_gneE11_1" time="5.90" state="stay" vehID="vtypeauto.33" speed="13.89" length="4.00" type="vtypeauto"/>
    <instantOut id="insDetector_-edge_0_8_1" time="5.90" state="stay" vehID="vtypeauto.21" speed="13.97" length="4.00" type="vtypeauto"/>
    <instantOut id="insDetector_gneE11_1" time="5.91" state="stay" vehID="vtypeauto.33" speed="13.89" length="4.00" type="vtypeauto"/>
    <instantOut id="insDetector_-edge_0_8_1" time="5.91" state="stay" vehID="vtypeauto.21" speed="13.97" length="4.00" type="vtypeauto"/>
    <instantOut id="insDetector_gneE11_1" time="5.92" state="stay" vehID="vtypeauto.33" speed="13.89" length="4.00" type="vtypeauto"/>
    <instantOut id="insDetector_-edge_0_8_1" time="5.92" state="stay" vehID="vtypeauto.21" speed="13.97" length="4.00" type="vtypeauto"/>
    <instantOut id="insDetector_gneE11_1" time="5.93" state="stay" vehID="vtypeauto.33" speed="13.89" length="4.00" type="vtypeauto"/>
    <instantOut id="insDetector_-edge_0_8_1" time="5.93" state="stay" vehID="vtypeauto.21" speed="13.97" length="4.00" type="vtypeauto"/>
    <instantOut id="insDetector_gneE11_1" time="5.94" state="stay" vehID="vtypeauto.33" speed="13.89" length="4.00" type="vtypeauto"/>
    <instantOut id="insDetector_-edge_0_8_1" time="5.94" state="stay" vehID="vtypeauto.21" speed="13.97" length="4.00" type="vtypeauto"/>
    <instantOut id="insDetector_gneE11_1" time="5.95" state="stay" vehID="vtypeauto.33" speed="13.89" length="4.00" type="vtypeauto"/>
    <instantOut id="insDetector_-edge_0_8_1" time="5.95" state="stay" vehID="vtypeauto.21" speed="13.97" length="4.00" type="vtypeauto"/>
    <instantOut id="insDetector_gneE11_1" time="5.96" state="stay" vehID="vtypeauto.33" speed="13.89" length="4.00" type="vtypeauto"/>
    <instantOut id="insDetector_-edge_0_8_1" time="5.96" state="stay" vehID="vtypeauto.21" speed="13.97" length="4.00" type="vtypeauto"/>
    <instantOut id="insDetector_gneE11_1" time="5.97" state="stay" vehID="vtypeauto.33" speed="13.89" length="4.00" type="vtypeauto"/>
    <instantOut id="insDetector_-edge_0_8_1" time="5.97" state="stay" vehID="vtypeauto.21" speed="13.97" length="4.00" type="vtypeauto"/>
    <instantOut id="insDetector_gneE11_1" time="5.98" state="stay" vehID="vtypeauto.33" speed="13.89" length="4.00" type="vtypeauto"/>
    <instantOut id="insDetector_-edge_0_8_1" time="5.98" state="stay" vehID="vtypeauto.21" speed="13.97" length="4.00" type="vtypeauto"/>
    <instantOut id="insDetector_gneE11_1" time="5.99" state="stay" vehID="vtypeauto.33" speed="13.89" length="4.00" type="vtypeauto"/>
    <instantOut id="insDetector_-edge_0_8_1" time="5.99" state="stay" vehID="vtypeauto.21" speed="13.97" length="4.00" type="vtypeauto"/>
    <instantOut id="insDetector_gneE11_1" time="6.00" state="stay" vehID="vtypeauto.33" speed="13.88" length="4.00" type="vtypeauto"/>
    <instantOut id="insDetector_-edge_0_8_1" time="6.00" state="stay" vehID="vtypeauto.21" speed="13.97" length="4.00" type="vtypeauto"/>
   <interval begin="5.00" end="6.00" id="e1Detector_gneE14_0_5" nVehContrib="0" flow="0.00" occupancy="0.00" speed="-1.00" length="-1.00" nVehEntered="0"/>
   <interval begin="5.00" end="6.00" id="e1Detector_gneE34_0_2" nVehContrib="0" flow="0.00" occupancy="0.00" speed="-1.00" length="-1.00" nVehEntered="0"/>
   <interval begin="5.00" end="6.00" id="e1Detector_gneE34_0_3" nVehContrib="0" flow="0.00" occupancy="0.00" speed="-1.00" length="-1.00" nVehEntered="0"/>
   <interval begin="5.00" end="6.00" id="e1Detector_gneE41_0_3" nVehContrib="0" flow="0.00" occupancy="0.00" speed="-1.00" length="-1.00" nVehEntered="0"/>
    <instantOut id="insDetector_gneE11_1" time="6.01" state="stay" vehID="vtypeauto.33" speed="13.88" length="4.00" type="vtypeauto"/>
    <instantOut id="insDetector_-edge_0_8_1" time="6.00" state="leave" vehID="vtypeauto.21" speed="13.97" length="4.00" type="vtypeauto" occupancy="0.29"/>
    <instantOut id="insDetector_gneE11_1" time="6.02" state="stay" vehID="vtypeauto.33" speed="13.88" length="4.00" type="vtypeauto"/>
    <instantOut id="insDetector_gneE11_1" time="6.03" state="stay" vehID="vtypeauto.33" speed="13.88" length="4.00" type="vtypeauto"/>
    <instantOut id="insDetector_gneE11_1" time="6.04" state="leave" vehID="vtypeauto.33" speed="13.88" length="4.00" type="vtypeauto" occupancy="0.29"/>
    <instantOut id="insDetector_-edge_0_8_1" time="6.34" state="enter" vehID="vtypeauto.22" speed="14.03" length="4.00" type="vtypeauto" gap="0.34"/>
    <instantOut id="insDetector_-edge_0_8_1" time="6.34" state="stay" vehID="vtypeauto.22" speed="14.03" length="4.00" type="vtypeauto"/>
    <instantOut id="insDetector_-edge_0_8_1" time="6.35" state="stay" vehID="vtypeauto.22" speed="14.03" length="4.00" type="vtypeauto"/>
    <instantOut id="insDetector_-edge_0_8_1" time="6.36" state="stay" vehID="vtypeauto.22" speed="14.03" length="4.00" type="vtypeauto"/>
    <instantOut id="insDetector_-edge_0_8_1" time="6.37" state="stay" vehID="vtypeauto.22" speed="14.03" length="4.00" type="vtypeauto"/>
    <instantOut id="insDetector_-edge_0_8_1" time="6.38" state="stay" vehID="vtypeauto.22" speed="14.03" length="4.00" type="vtypeauto"/>
    <instantOut id="insDetector_-edge_0_8_1" time="6.39" state="stay" vehID="vtypeauto.22" speed="14.03" length="4.00" type="vtypeauto"/>
    <instantOut id="insDetector_gneE11_1" time="6.40" state="enter" vehID="vtypeauto.34" speed="13.88" length="4.00" type="vtypeauto" gap="0.36"/>
    <instantOut id="insDetector_gneE11_1" time="6.40" state="stay" vehID="vtypeauto.34" speed="13.88" length="4.00" type="vtypeauto"/>
    <instantOut id="insDetector_-edge_0_8_1" time="6.40" state="stay" vehID="vtypeauto.22" speed="14.03" length="4.00" type="vtypeauto"/>
    <instantOut id="insDetector_gneE11_1" time="6.41" state="stay" vehID="vtypeauto.34" speed="13.88" length="4.00" type="vtypeauto"/>
    <instantOut id="insDetector_-edge_0_8_1" time="6.41" state="stay" vehID="vtypeauto.22" speed="14.03" length="4.00" type="vtypeauto"/>
    <instantOut id="insDetector_gneE11_1" time="6.42" state="stay" vehID="vtypeauto.34" speed="13.88" length="4.00" type="vtypeauto"/>
    <instantOut id="insDetector_-edge_0_8_1" time="6.42" state="stay" vehID="vtypeauto.22" speed="14.03" length="4.00" type="vtypeauto"/>
    <instantOut id="insDetector_gneE11_1" time="6.43" state="stay" vehID="vtypeauto.34" speed="13.88" length="4.00" type="vtypeauto"/>
    <instantOut id="insDetector_-edge_0_8_1" time="6.43" state="stay" vehID="vtypeauto.22" speed="14.02" length="4.00" type="vtypeauto"/>
    <instantOut id="insDetector_gneE11_1" time="6.44" state="stay" vehID="vtypeauto.34" speed="13.87" length="4.00" type="vtypeauto"/>
    <instantOut id="insDetector_-edge_0_8_1" time="6.44" state="stay" vehID="vtypeauto.22" speed="14.02" length="4.00" type="vtypeauto"/>
    <instantOut id="insDetector_gneE11_1" time="6.45" state="stay" vehID="vtypeauto.34" speed="13.87" length="4.00" type="vtypeauto"/>
    <instantOut id="insDetector_-edge_0_8_1" time="6.45" state="stay" vehID="vtypeauto.22" speed="14.02" length="4.00" type="vtypeauto"/>
    <instantOut id="insDetector_gneE11_1" time="6.46" state="stay" vehID="vtypeauto.34" speed="13.87" length="4.00" type="vtypeauto"/>
    <instantOut id="insDetector_-edge_0_8_1" time="6.46" state="stay" vehID="vtypeauto.22" speed="14.02" length="4.00" type="vtypeauto"/>
    <instantOut id="insDetector_gneE11_1" time="6.47" state="stay" vehID="vtypeauto.34" speed="13.86" length="4.00" type="vtypeauto"/>
    <instantOut id="insDetector_-edge_0_8_1" time="6.47" state="stay" vehID="vtypeauto.22" speed="14.02" length="4.00" type="vtypeauto"/>
    <instantOut id="insDetector_gneE11_1" time="6.48" state="stay" vehID="vtypeauto.34" speed="13.86" length="4.00" type="vtypeauto"/>
    <instantOut id="insDetector_-edge_0_8_1" time="6.48" state="stay" vehID="vtypeauto.22" speed="14.02" length="4.00" type="vtypeauto"/>
    <instantOut id="insDetector_gneE11_1" time="6.49" state="stay" vehID="vtypeauto.34" speed="13.86" length="4.00" type="vtypeauto"/>
    <instantOut id="insDetector_-edge_0_8_1" time="6.49" state="stay" vehID="vtypeauto.22" speed="14.02" length="4.00" type="vtypeauto"/>
    <instantOut id="insDetector_gneE11_1" time="6.50" state="stay" vehID="vtypeauto.34" speed="13.85" length="4.00" type="vtypeauto"/>
    <instantOut id="insDetector_-edge_0_8_1" time="6.50" state="stay" vehID="vtypeauto.22" speed="14.02" length="4.00" type="vtypeauto"/>
    <instantOut id="insDetector_gneE11_1" time="6.51" state="stay" vehID="vtypeauto.34" speed="13.85" length="4.00" type="vtypeauto"/>
    <instantOut id="insDetector_-edge_0_8_1" time="6.51" state="stay" vehID="vtypeauto.22" speed="14.02" length="4.00" type="vtypeauto"/>
    <instantOut id="insDetector_gneE11_1" time="6.52" state="stay" vehID="vtypeauto.34" speed="13.84" length="4.00" type="vtypeauto"/>
    <instantOut id="insDetector_-edge_0_8_1" time="6.52" state="stay" vehID="vtypeauto.22" speed="14.02" length="4.00" type="vtypeauto"/>
    <instantOut id="insDetector_gneE11_1" time="6.53" state="stay" vehID="vtypeauto.34" speed="13.84" length="4.00" type="vtypeauto"/>
    <instantOut id="insDetector_-edge_0_8_1" time="6.53" state="stay" vehID="vtypeauto.22" speed="14.02" length="4.00" type="vtypeauto"/>
    <instantOut id="insDetector_gneE11_1" time="6.54" state="stay" vehID="vtypeauto.34" speed="13.83" length="4.00" type="vtypeauto"/>
    <instantOut id="insDetector_-edge_0_8_1" time="6.54" state="stay" vehID="vtypeauto.22" speed="14.02" length="4.00" type="vtypeauto"/>
    <instantOut id="insDetector_gneE11_1" time="6.55" state="stay" vehID="vtypeauto.34" speed="13.83" length="4.00" type="vtypeauto"/>
    <instantOut id="insDetector_-edge_0_8_1" time="6.55" state="stay" vehID="vtypeauto.22" speed="14.01" length="4.00" type="vtypeauto"/>
    <instantOut id="insDetector_gneE11_1" time="6.56" state="stay" vehID="vtypeauto.34" speed="13.82" length="4.00" type="vtypeauto"/>
    <instantOut id="insDetector_-edge_0_8_1" time="6.56" state="stay" vehID="vtypeauto.22" speed="14.01" length="4.00" type="vtypeauto"/>
    <instantOut id="insDetector_gneE11_1" time="6.57" state="stay" vehID="vtypeauto.34" speed="13.81" length="4.00" type="vtypeauto"/>
    <instantOut id="insDetector_-edge_0_8_1" time="6.57" state="stay" vehID="vtypeauto.22" speed="14.01" length="4.00" type="vtypeauto"/>
    <instantOut id="insDetector_gneE11_1" time="6.58" state="stay" vehID="vtypeauto.34" speed="13.81" length="4.00" type="vtypeauto"/>
    <instantOut id="insDetector_-edge_0_8_1" time="6.58" state="stay" vehID="vtypeauto.22" speed="14.01" length="4.00" type="vtypeauto"/>
    <instantOut id="insDetector_gneE11_1" time="6.59" state="stay" vehID="vtypeauto.34" speed="13.80" length="4.00" type="vtypeauto"/>
    <instantOut id="insDetector_-edge_0_8_1" time="6.59" state="stay" vehID="vtypeauto.22" speed="14.01" length="4.00" type="vtypeauto"/>
    <instantOut id="insDetector_gneE11_1" time="6.60" state="stay" vehID="vtypeauto.34" speed="13.80" length="4.00" type="vtypeauto"/>
    <instantOut id="insDetector_-edge_0_8_1" time="6.60" state="stay" vehID="vtypeauto.22" speed="14.01" length="4.00" type="vtypeauto"/>
    <instantOut id="insDetector_gneE11_1" time="6.61" state="stay" vehID="vtypeauto.34" speed="13.79" length="4.00" type="vtypeauto"/>
    <instantOut id="insDetector_-edge_0_8_1" time="6.61" state="stay" vehID="vtypeauto.22" speed="14.01" length="4.00" type="vtypeauto"/>
    <instantOut id="insDetector_gneE11_1" time="6.62" state="stay" vehID="vtypeauto.34" speed="13.78" length="4.00" type="vtypeauto"/>
    <instantOut id="insDetector_-edge_0_8_1" time="6.62" state="stay" vehID="vtypeauto.22" speed="14.01" length="4.00" type="vtypeauto"/>
    <instantOut id="insDetector_gneE11_1" time="6.63" state="stay" vehID="vtypeauto.34" speed="13.78" length="4.00" type="vtypeauto"/>
    <instantOut id="insDetector_-edge_0_8_1" time="6.62" state="leave" vehID="vtypeauto.22" speed="14.01" length="4.00" type="vtypeauto" occupancy="0.29"/>