[General]
cmdenv-express-mode = true
cmdenv-autoflush = true
cmdenv-status-frequency = 10s
num-rngs = 6

ned-path = .
network = scenario

##########################################################
#            Simulation parameters                       #
##########################################################
debug-on-errors = true
print-undisposed = true

*.playgroundSizeX = 65000m
*.playgroundSizeY = 25000m
*.playgroundSizeZ = 50m

#let our modules decide when to stop the simulation
sim-time-limit = 1e6 s

**.debug = false
**.coreDebug = false

##########################################################
# Annotation parameters                                  #
##########################################################
*.annotations.draw = false

##########################################################
# Obstacle parameters                                    #
##########################################################
*.obstacles.debug = false

##########################################################
#            WorldUtility parameters                     #
##########################################################
*.world.useTorus = false
*.world.use2D = false

##########################################################
#            TraCIScenarioManager parameters             #
##########################################################
# *.manager.updateInterval = 0.01s
*.manager.updateInterval = 0.01s
*.manager.host = "localhost"
*.manager.moduleType = "Car"
*.manager.moduleName = "node"
*.manager.moduleDisplayString = ""
*.manager.autoShutdown = true
*.manager.margin = 25

##########################################################
#            11p specific parameters                     #
#                                                        #
#                    NIC-Settings                        #
##########################################################
*.connectionManager.pMax = 100mW
*.connectionManager.sat = -94dBm
*.connectionManager.alpha = 2.0
*.connectionManager.carrierFrequency = 5.890e9 Hz
*.connectionManager.sendDirect = true

*.**.nic.mac1609_4.useServiceChannel = false

*.**.nic.mac1609_4.txPower = 100mW
*.**.nic.mac1609_4.bitrate = 6Mbps

*.**.nic.phy80211p.sensitivity = -94dBm
*.**.nic.phy80211p.maxTXPower = 100mW
*.**.nic.phy80211p.useThermalNoise = true
*.**.nic.phy80211p.thermalNoise = -95dBm
*.**.nic.phy80211p.decider = xmldoc("config.xml")
*.**.nic.phy80211p.analogueModels = xmldoc("config.xml")
*.**.nic.phy80211p.usePropagationDelay = true

##########################################################
#                      Mobility                          #
##########################################################
*.node[*].mobility.x = 0
*.node[*].mobility.y = 0
*.node[*].mobility.z = 1.895


##########################################################
#                    Seeds and PRNGs                     #
##########################################################
seed-set = ${repetition}
**.seed = ${repetition}

*.node[*].unicast.rng-0 = 1
*.node[*].prot.rng-0 = 2
*.node[*].appl.rng-0 = 3
*.node[*].scenario.rng-0 = 4
**.traffic.rng-0 = 5

#launch config. tells Veins which SUMO configuration to run
*.manager.configFile = "./sumocfg/freeway.sumo.cfg"
#launch command. change sumo-gui with sumo depending on what you want to launch
*.manager.commandLine = "sumo-gui --remote-port $port --seed $seed --configuration-file $configFile"

##########################################################
#                   Common parameters                    #
##########################################################

**.nCars = ${nCars = 21}

**.realPlatoons = ${realPlatoons = 16}

**.platoonSize1 = ${platoonSize1 = 3}
**.platoonSize2 = ${platoonSize2 = 3}
**.platoonSize3 = ${platoonSize3 = 3}
**.platoonSize4 = ${platoonSize4 = 3}
**.platoonSize5 = ${platoonSize5 = 3}
**.platoonSize6 = ${platoonSize6 = 3}
**.platoonSize7 = ${platoonSize7 = 3}
**.platoonSize8 = ${platoonSize8 = 3}
**.platoonSize9 = ${platoonSize9 = 3}
**.platoonSize10 = ${platoonSize10 = 3}
**.platoonSize11 = ${platoonSize11 = 3}
**.platoonSize12 = ${platoonSize12 = 3}
**.platoonSize13 = ${platoonSize13 = 3}
**.platoonSize14 = ${platoonSize14 = 3}
**.platoonSize15 = ${platoonSize15 = 3}
**.platoonSize16 = ${platoonSize16 = 3}

**.platoonSize17 = ${platoonSize17 = 1}
**.platoonSize18 = ${platoonSize18 = 1}
**.platoonSize19 = ${platoonSize19 = 1}
**.platoonSize20 = ${platoonSize20 = 1}
**.platoonSize21 = ${platoonSize21 = 1}
**.platoonSize22 = ${platoonSize22 = 1}
**.platoonSize23 = ${platoonSize23 = 1}
**.platoonSize24 = ${platoonSize24 = 1}
**.platoonSize25 = ${platoonSize25 = 1}
**.platoonSize26 = ${platoonSize26 = 1}
**.platoonSize27 = ${platoonSize27 = 1}
**.platoonSize28 = ${platoonSize28 = 1}
**.platoonSize29 = ${platoonSize29 = 1}
**.platoonSize30 = ${platoonSize30 = 1}
**.platoonSize31 = ${platoonSize31 = 1}
**.platoonSize32 = ${platoonSize32 = 1}

**.platoonSize33 = ${platoonSize33 = 1}
**.platoonSize34 = ${platoonSize34 = 1}
**.platoonSize35 = ${platoonSize35 = 1}
**.platoonSize36 = ${platoonSize36 = 1}
**.platoonSize37 = ${platoonSize37 = 1}
**.platoonSize38 = ${platoonSize38 = 1}
**.platoonSize39 = ${platoonSize39 = 1}
**.platoonSize40 = ${platoonSize40 = 1}
**.platoonSize41 = ${platoonSize41 = 1}
**.platoonSize42 = ${platoonSize42 = 1}
**.platoonSize43 = ${platoonSize43 = 1}
**.platoonSize44 = ${platoonSize44 = 1}
**.platoonSize45 = ${platoonSize45 = 1}
**.platoonSize46 = ${platoonSize46 = 1}
**.platoonSize47 = ${platoonSize47 = 1}
**.platoonSize48 = ${platoonSize48 = 1}



**.nLanes = ${nLanes = 1}
#**.numberOfLanes = ${nLanes = 1}
**.controllerXi = ${caccXi = 1, 2}
**.controllerOmegaN = ${caccOmegaN = 0.2, 1 ! caccXi}

##########################################################
#                    Position helper                     #
##########################################################

*.node[*].helper_type = "JoinPositionHelper"

##########################################################
#               Scenario common parameters               #
##########################################################

#controller and engine related parameters
*.node[*].scenario.caccC1 = 0.5
*.node[*].scenario.caccXi = ${caccXi}
*.node[*].scenario.caccOmegaN = ${caccOmegaN} Hz
*.node[*].scenario.engineTau = 0.5 s
*.node[*].scenario.ploegH = ${ploegH = 0.5}s
*.node[*].scenario.ploegKp = 0.2
*.node[*].scenario.ploegKd = 0.7
*.node[*].scenario.useRealisticEngine = false

#controllers to be tested
**.numericController = 0
*.node[*].scenario.controller = "CACC"

#headway for ACCs
*.node[*].scenario.accHeadway = 0.1 s
*.node[*].scenario.leaderHeadway = ${leaderHeadway = 1.2}s

#average leader speed
*.node[*].scenario.leaderSpeed = ${leaderSpeed = 50}kmph

##########################################################
#                      Application                       #
##########################################################

*.node[*].appl_type = "SimplePlatooningApp"
#enable statistics recording for the application
*.node[*].appl.*.scalar-recording = true
*.node[*].appl.*.vector-recording = true
#collect data for time
*.node[*].appl.simulationDuration = 1000 s

##########################################################
#                Communication protocols                 #
##########################################################

*.node[*].protocol_type = "SimplePlatooningBeaconing"
#enable statistics recording for the network layer
*.node[*].prot.*.scalar-recording = true
*.node[*].prot.*.vector-recording = true
#set the beaconing interval to be 0.1s
#set the beaconing interval to be 0.4s
*.node[*].prot.beaconingInterval = ${beaconInterval = 0.3}s
#access category for platooning beacons
*.node[*].prot.priority = ${priority = 2}
#packet size for platooning beacon
*.node[*].prot.packetSize = ${packetSize = 200}
#via wireless send acceleration computed by the controller, not the actual one
*.node[*].prot.useControllerAcceleration = true
#set to 0 the packet loss rate for the unicast protocol
*.node[*].unicast.packetLossRate = 0

##########################################################
#                    Traffic manager                     #
##########################################################

**.traffic_type = "JoinTrafficManager"
#insert platooning vehicles at time
**.traffic.platoonInsertTime = 0.3 s
#insert platooning vehicles with a speed of
**.traffic.platoonInsertSpeed = ${leaderSpeed}kmph
#insert nCars platooning vehicles
**.traffic.nCars = ${nCars}

**traffic.realPlatoons = ${realPlatoons}

#let platoonSize cars per platoon
**.traffic.platoonSize1 = ${platoonSize1}
**.traffic.platoonSize2 = ${platoonSize2}
**.traffic.platoonSize3 = ${platoonSize3}
**.traffic.platoonSize4 = ${platoonSize4}
**.traffic.platoonSize5 = ${platoonSize5}
**.traffic.platoonSize6 = ${platoonSize6}
**.traffic.platoonSize7 = ${platoonSize7}
**.traffic.platoonSize8 = ${platoonSize8}
**.traffic.platoonSize9 = ${platoonSize9}
**.traffic.platoonSize10 = ${platoonSize10}
**.traffic.platoonSize11 = ${platoonSize11}
**.traffic.platoonSize12 = ${platoonSize12}
**.traffic.platoonSize13 = ${platoonSize13}
**.traffic.platoonSize14 = ${platoonSize14}
**.traffic.platoonSize15 = ${platoonSize15}
**.traffic.platoonSize16 = ${platoonSize16}

**.traffic.platoonSize17 = ${platoonSize17}
**.traffic.platoonSize18 = ${platoonSize18}
**.traffic.platoonSize19 = ${platoonSize19}
**.traffic.platoonSize20 = ${platoonSize20}
**.traffic.platoonSize21 = ${platoonSize21}
**.traffic.platoonSize22 = ${platoonSize22}
**.traffic.platoonSize23 = ${platoonSize23}
**.traffic.platoonSize24 = ${platoonSize24}
**.traffic.platoonSize25 = ${platoonSize25}
**.traffic.platoonSize26 = ${platoonSize26}
**.traffic.platoonSize27 = ${platoonSize27}
**.traffic.platoonSize28 = ${platoonSize28}
**.traffic.platoonSize29 = ${platoonSize29}
**.traffic.platoonSize30 = ${platoonSize30}
**.traffic.platoonSize31 = ${platoonSize31}
**.traffic.platoonSize32 = ${platoonSize32}

**.traffic.platoonSize33 = ${platoonSize33}
**.traffic.platoonSize34 = ${platoonSize34}
**.traffic.platoonSize35 = ${platoonSize35}
**.traffic.platoonSize36 = ${platoonSize36}
**.traffic.platoonSize37 = ${platoonSize37}
**.traffic.platoonSize38 = ${platoonSize38}
**.traffic.platoonSize39 = ${platoonSize39}
**.traffic.platoonSize40 = ${platoonSize40}
**.traffic.platoonSize41 = ${platoonSize41}
**.traffic.platoonSize42 = ${platoonSize42}
**.traffic.platoonSize43 = ${platoonSize43}
**.traffic.platoonSize44 = ${platoonSize44}
**.traffic.platoonSize45 = ${platoonSize45}
**.traffic.platoonSize46 = ${platoonSize46}
**.traffic.platoonSize47 = ${platoonSize47}
**.traffic.platoonSize48 = ${platoonSize48}


#use nLanes lanes
**.traffic.nLanes = ${nLanes}
#SUMO vtype for platooning vehicles
**.traffic.platooningVType = "vtypeauto"
#insert vehicles already at steady-state. distance depends on controller
**.traffic.platoonInsertDistance = 5 m
**.traffic.platoonInsertHeadway = 0 s
**.traffic.platoonLeaderHeadway = ${leaderHeadway}s


#disable statistics recording for all other modules
**.scalar-recording = false
**.vector-recording = false

[Config JoinManeuver]

repeat = 1

#use the join maneuver scenario
*.node[*].scenario_type = "JoinManeuverScenario"

output-vector-file = ${resultdir}/${configname}_${caccXi}_${caccOmegaN}_${repetition}.vec
output-scalar-file = ${resultdir}/${configname}_${caccXi}_${caccOmegaN}_${repetition}.sca

[Config JoinManeuverNoGui]
extends = JoinManeuver
*.manager.commandLine = "sumo --remote-port $port --seed $seed --configuration-file $configFile"
#force the config name in the output file to be the same as for the gui experiment
output-vector-file = ${resultdir}/JoinManeuver_${caccXi}_${caccOmegaN}_${repetition}.vec
output-scalar-file = ${resultdir}/JoinManeuver_${caccXi}_${caccOmegaN}_${repetition}.sca
